*SPEF "ieee 1481-1999"
*DESIGN "barrelShifter"
*DATE "00:55:35 Saturday May 16, 2026"
*VENDOR "The OpenROAD Project"
*PROGRAM "OpenROAD"
*VERSION "v2.0-16235-gedf00dff9"
*DESIGN_FLOW "NAME_SCOPE LOCAL" "PIN_CAP NONE"
*DIVIDER /
*DELIMITER :
*BUS_DELIMITER []
*T_UNIT 1 NS
*C_UNIT 1 PF
*R_UNIT 1 OHM
*L_UNIT 1 HENRY

*NAME_MAP
*3 amt[0]
*4 amt[1]
*5 amt[2]
*6 data[0]
*7 data[1]
*8 data[2]
*9 data[3]
*10 data[4]
*11 data[5]
*12 data[6]
*13 data[7]
*14 result[0]
*15 result[1]
*16 result[2]
*17 result[3]
*18 result[4]
*19 result[5]
*20 result[6]
*21 result[7]
*22 _000_
*23 _001_
*24 _002_
*25 _003_
*26 _004_
*27 _005_
*28 _006_
*29 _007_
*30 _008_
*31 _009_
*32 _010_
*33 _011_
*34 _012_
*35 _013_
*36 _014_
*37 _015_
*38 _016_
*39 _017_
*40 _018_
*41 _019_
*42 _020_
*43 _021_
*44 _022_
*45 _023_
*46 _024_
*47 _025_
*48 _026_
*49 _027_
*50 _028_
*51 _029_
*52 _030_
*53 _031_
*54 _032_
*55 _033_
*56 _034_
*57 _035_
*58 _036_
*59 _037_
*60 _038_
*61 _039_
*62 _040_
*63 _041_
*64 _042_
*65 _043_
*66 _044_
*67 _045_
*68 _046_
*69 _047_
*70 _048_
*71 _049_
*72 _050_
*73 _051_
*74 _052_
*75 _053_
*76 _054_
*77 _055_
*78 net1
*79 net10
*80 net11
*81 net12
*82 net13
*83 net14
*84 net15
*85 net16
*86 net17
*87 net18
*88 net19
*89 net2
*90 net20
*91 net21
*92 net22
*93 net23
*94 net24
*95 net25
*96 net26
*97 net27
*98 net28
*99 net29
*100 net3
*101 net30
*102 net31
*103 net32
*104 net33
*105 net34
*106 net4
*107 net5
*108 net6
*109 net7
*110 net8
*111 net9
*112 FILLER_0_23
*113 FILLER_0_29
*114 FILLER_0_3
*115 FILLER_0_35
*116 FILLER_0_57
*117 FILLER_0_60
*118 FILLER_0_63
*119 FILLER_0_71
*120 FILLER_0_74
*121 FILLER_0_77
*122 FILLER_10_15
*123 FILLER_10_26
*124 FILLER_10_41
*125 FILLER_10_44
*126 FILLER_10_51
*127 FILLER_10_54
*128 FILLER_10_57
*129 FILLER_10_75
*130 FILLER_11_11
*131 FILLER_11_25
*132 FILLER_11_52
*133 FILLER_11_55
*134 FILLER_11_57
*135 FILLER_11_60
*136 FILLER_11_63
*137 FILLER_11_66
*138 FILLER_11_69
*139 FILLER_11_7
*140 FILLER_11_72
*141 FILLER_11_75
*142 FILLER_12_12
*143 FILLER_12_15
*144 FILLER_12_18
*145 FILLER_12_21
*146 FILLER_12_24
*147 FILLER_12_27
*148 FILLER_12_29
*149 FILLER_12_32
*150 FILLER_12_35
*151 FILLER_12_38
*152 FILLER_12_41
*153 FILLER_12_44
*154 FILLER_12_47
*155 FILLER_12_50
*156 FILLER_12_53
*157 FILLER_12_57
*158 FILLER_12_6
*159 FILLER_12_60
*160 FILLER_12_63
*161 FILLER_12_66
*162 FILLER_12_69
*163 FILLER_12_72
*164 FILLER_12_75
*165 FILLER_12_9
*166 FILLER_1_3
*167 FILLER_1_39
*168 FILLER_1_54
*169 FILLER_1_75
*170 FILLER_2_44
*171 FILLER_3_11
*172 FILLER_3_20
*173 FILLER_3_23
*174 FILLER_3_26
*175 FILLER_3_35
*176 FILLER_3_38
*177 FILLER_3_57
*178 FILLER_3_60
*179 FILLER_3_76
*180 FILLER_4_18
*181 FILLER_4_29
*182 FILLER_4_32
*183 FILLER_4_35
*184 FILLER_4_60
*185 FILLER_4_7
*186 FILLER_4_73
*187 FILLER_5_18
*188 FILLER_5_21
*189 FILLER_5_24
*190 FILLER_5_3
*191 FILLER_5_32
*192 FILLER_5_35
*193 FILLER_5_38
*194 FILLER_5_51
*195 FILLER_5_54
*196 FILLER_5_57
*197 FILLER_5_60
*198 FILLER_5_72
*199 FILLER_6_13
*200 FILLER_6_23
*201 FILLER_6_26
*202 FILLER_6_36
*203 FILLER_6_39
*204 FILLER_6_46
*205 FILLER_6_49
*206 FILLER_6_52
*207 FILLER_6_7
*208 FILLER_7_39
*209 FILLER_7_57
*210 FILLER_7_60
*211 FILLER_7_63
*212 FILLER_7_66
*213 FILLER_7_69
*214 FILLER_7_72
*215 FILLER_8_10
*216 FILLER_8_13
*217 FILLER_8_16
*218 FILLER_8_19
*219 FILLER_8_22
*220 FILLER_8_25
*221 FILLER_8_29
*222 FILLER_8_37
*223 FILLER_8_40
*224 FILLER_8_48
*225 FILLER_8_64
*226 FILLER_8_76
*227 FILLER_9_23
*228 FILLER_9_26
*229 FILLER_9_29
*230 FILLER_9_3
*231 FILLER_9_38
*232 FILLER_9_41
*233 FILLER_9_44
*234 FILLER_9_47
*235 FILLER_9_54
*236 FILLER_9_77
*237 PHY_EDGE_ROW_0_Left_13
*238 PHY_EDGE_ROW_0_Right_0
*239 PHY_EDGE_ROW_10_Left_23
*240 PHY_EDGE_ROW_10_Right_10
*241 PHY_EDGE_ROW_11_Left_24
*242 PHY_EDGE_ROW_11_Right_11
*243 PHY_EDGE_ROW_12_Left_25
*244 PHY_EDGE_ROW_12_Right_12
*245 PHY_EDGE_ROW_1_Left_14
*246 PHY_EDGE_ROW_1_Right_1
*247 PHY_EDGE_ROW_2_Left_15
*248 PHY_EDGE_ROW_2_Right_2
*249 PHY_EDGE_ROW_3_Left_16
*250 PHY_EDGE_ROW_3_Right_3
*251 PHY_EDGE_ROW_4_Left_17
*252 PHY_EDGE_ROW_4_Right_4
*253 PHY_EDGE_ROW_5_Left_18
*254 PHY_EDGE_ROW_5_Right_5
*255 PHY_EDGE_ROW_6_Left_19
*256 PHY_EDGE_ROW_6_Right_6
*257 PHY_EDGE_ROW_7_Left_20
*258 PHY_EDGE_ROW_7_Right_7
*259 PHY_EDGE_ROW_8_Left_21
*260 PHY_EDGE_ROW_8_Right_8
*261 PHY_EDGE_ROW_9_Left_22
*262 PHY_EDGE_ROW_9_Right_9
*263 TAP_TAPCELL_ROW_0_26
*264 TAP_TAPCELL_ROW_0_27
*265 TAP_TAPCELL_ROW_10_37
*266 TAP_TAPCELL_ROW_11_38
*267 TAP_TAPCELL_ROW_12_39
*268 TAP_TAPCELL_ROW_12_40
*269 TAP_TAPCELL_ROW_1_28
*270 TAP_TAPCELL_ROW_2_29
*271 TAP_TAPCELL_ROW_3_30
*272 TAP_TAPCELL_ROW_4_31
*273 TAP_TAPCELL_ROW_5_32
*274 TAP_TAPCELL_ROW_6_33
*275 TAP_TAPCELL_ROW_7_34
*276 TAP_TAPCELL_ROW_8_35
*277 TAP_TAPCELL_ROW_9_36
*278 _056_
*279 _057_
*280 _058_
*281 _059_
*282 _060_
*283 _061_
*284 _062_
*285 _063_
*286 _064_
*287 _065_
*288 _066_
*289 _067_
*290 _068_
*291 _069_
*292 _070_
*293 _071_
*294 _072_
*295 _073_
*296 _074_
*297 _075_
*298 _076_
*299 _077_
*300 _078_
*301 _079_
*302 _080_
*303 _081_
*304 _082_
*305 _083_
*306 _084_
*307 _085_
*308 _086_
*309 _087_
*310 _088_
*311 _089_
*312 _090_
*313 _091_
*314 _092_
*315 _093_
*316 _094_
*317 _095_
*318 _096_
*319 _097_
*320 _098_
*321 _099_
*322 _100_
*323 _101_
*324 _102_
*325 _103_
*326 _104_
*327 _105_
*328 _106_
*329 _107_
*330 _108_
*331 _109_
*332 _110_
*333 _111_
*334 _112_
*335 _113_
*336 _114_
*337 _115_
*338 _116_
*339 _117_
*340 _118_
*341 _119_
*342 fanout22
*343 fanout23
*344 fanout24
*345 fanout25
*346 fanout26
*347 fanout27
*348 fanout28
*349 fanout29
*350 fanout30
*351 fanout31
*352 fanout32
*353 fanout33
*354 fanout34
*355 input1
*356 input10
*357 input11
*358 input2
*359 input3
*360 input4
*361 input5
*362 input6
*363 input7
*364 input8
*365 input9
*366 max_cap20
*367 max_cap21
*368 output12
*369 output13
*370 output14
*371 output15
*372 output16
*373 output17
*374 output18
*375 output19

*PORTS
amt[0] I
amt[1] I
amt[2] I
data[0] I
data[1] I
data[2] I
data[3] I
data[4] I
data[5] I
data[6] I
data[7] I
result[0] O
result[1] O
result[2] O
result[3] O
result[4] O
result[5] O
result[6] O
result[7] O

*D_NET *3 0.000567377
*CONN
*P amt[0] I
*I *355:A I *D sky130_fd_sc_hd__buf_1
*CAP
1 amt[0] 0.000272443
2 *355:A 0.000272443
3 *355:A *361:A 2.24901e-05
*RES
1 amt[0] *355:A 7.0893 
*END

*D_NET *4 0.00155515
*CONN
*P amt[1] I
*I *358:A I *D sky130_fd_sc_hd__clkbuf_1
*CAP
1 amt[1] 0.000724183
2 *358:A 0.000724183
3 *358:A *315:C 0
4 *358:A *359:A 7.56675e-05
5 *358:A *360:A 3.11188e-05
*RES
1 amt[1] *358:A 6.8573 
*END

*D_NET *5 0.00169188
*CONN
*P amt[2] I
*I *359:A I *D sky130_fd_sc_hd__buf_1
*CAP
1 amt[2] 0.000387624
2 *359:A 0.000387624
3 *359:A *315:A_N 0.000104554
4 *359:A *362:A 0.000534902
5 *359:A *108:8 0.000201508
6 *358:A *359:A 7.56675e-05
*RES
1 amt[2] *359:A 11.4485 
*END

*D_NET *6 0.000820338
*CONN
*P data[0] I
*I *360:A I *D sky130_fd_sc_hd__clkbuf_2
*CAP
1 data[0] 0.000380745
2 *360:A 0.000380745
3 *360:A result[1] 0
4 *360:A *350:A 2.77283e-05
5 *358:A *360:A 3.11188e-05
*RES
1 data[0] *360:A 10.44 
*END

*D_NET *7 0.000560459
*CONN
*P data[1] I
*I *361:A I *D sky130_fd_sc_hd__clkbuf_2
*CAP
1 data[1] 0.000254731
2 *361:A 0.000254731
3 *361:A result[7] 0
4 *361:A *351:A 0
5 *361:A *357:A 2.85068e-05
6 *355:A *361:A 2.24901e-05
*RES
1 data[1] *361:A 5.67003 
*END

*D_NET *8 0.00189662
*CONN
*P data[2] I
*I *362:A I *D sky130_fd_sc_hd__clkbuf_2
*CAP
1 data[2] 0.000514224
2 *362:A 0.000514224
3 *362:A result[4] 4.66616e-05
4 *362:A *315:A_N 6.3765e-05
5 *362:A *315:B 5.55968e-05
6 *362:A *315:C 6.03061e-05
7 *362:A *315:D 2.05864e-05
8 *362:A *102:18 3.63701e-06
9 *362:A *102:20 5.30575e-05
10 *362:A *102:22 2.96561e-05
11 *359:A *362:A 0.000534902
*RES
1 data[2] *362:A 13.8652 
*END

*D_NET *9 0.000501683
*CONN
*P data[3] I
*I *363:A I *D sky130_fd_sc_hd__clkbuf_2
*CAP
1 data[3] 0.000189212
2 *363:A 0.000189212
3 *363:A result[2] 0.000102216
4 *363:A *295:A1 2.10433e-05
*RES
1 data[3] *363:A 4.9633 
*END

*D_NET *10 0.000655155
*CONN
*P data[4] I
*I *364:A I *D sky130_fd_sc_hd__clkbuf_2
*CAP
1 data[4] 0.000274407
2 *364:A 0.000274407
3 *364:A result[4] 3.14094e-05
4 *364:A result[5] 2.24901e-05
5 *364:A *96:50 4.66108e-05
6 *364:A *96:63 0
7 *364:A *102:84 5.83121e-06
*RES
1 data[4] *364:A 7.4343 
*END

*D_NET *11 0.000648736
*CONN
*P data[5] I
*I *365:A I *D sky130_fd_sc_hd__clkbuf_2
*CAP
1 data[5] 0.000204018
2 *365:A 0.000204018
3 *365:A result[0] 0.000102216
4 *365:A *356:A 9.36531e-05
5 *365:A *99:36 4.48319e-05
*RES
1 data[5] *365:A 5.7283 
*END

*D_NET *12 0.000554342
*CONN
*P data[6] I
*I *356:A I *D sky130_fd_sc_hd__clkbuf_2
*CAP
1 data[6] 0.00016952
2 *356:A 0.00016952
3 *356:A result[3] 8.53361e-05
4 *356:A *311:A3 3.09233e-05
5 *356:A *99:62 5.38986e-06
6 *365:A *356:A 9.36531e-05
*RES
1 data[6] *356:A 5.2183 
*END

*D_NET *13 0.000630048
*CONN
*P data[7] I
*I *357:A I *D sky130_fd_sc_hd__clkbuf_2
*CAP
1 data[7] 0.000289526
2 *357:A 0.000289526
3 *357:A result[7] 2.24901e-05
4 *361:A *357:A 2.85068e-05
*RES
1 data[7] *357:A 7.4343 
*END

*D_NET *14 0.000496316
*CONN
*P result[0] O
*I *368:X O *D sky130_fd_sc_hd__buf_2
*CAP
1 result[0] 0.000138861
2 *368:X 0.000138861
3 result[0] result[2] 0.000104673
4 result[0] *99:36 1.17036e-05
5 *365:A result[0] 0.000102216
*RES
1 *368:X result[0] 4.9633 
*END

*D_NET *15 0.000810878
*CONN
*P result[1] O
*I *369:X O *D sky130_fd_sc_hd__buf_2
*CAP
1 result[1] 0.000405439
2 *369:X 0.000405439
3 *360:A result[1] 0
*RES
1 *369:X result[1] 10.185 
*END

*D_NET *16 0.00158168
*CONN
*P result[2] O
*I *370:X O *D sky130_fd_sc_hd__buf_2
*CAP
1 result[2] 0.00060415
2 *370:X 0.00060415
3 result[2] *287:B 5.78448e-05
4 result[2] *104:57 0.000108647
5 result[0] result[2] 0.000104673
6 *363:A result[2] 0.000102216
*RES
1 *370:X result[2] 6.74077 
*END

*D_NET *17 0.00190527
*CONN
*P result[3] O
*I *371:X O *D sky130_fd_sc_hd__buf_2
*CAP
1 result[3] 0.000700028
2 *371:X 0.000700028
3 result[3] *307:B1 1.47347e-05
4 result[3] *309:C 0.000212289
5 result[3] *309:D 2.05056e-05
6 result[3] *310:A 0
7 result[3] *310:C 2.75145e-05
8 result[3] *310:D 3.00381e-05
9 result[3] *311:A3 8.72814e-05
10 result[3] *80:22 2.75145e-05
11 *356:A result[3] 8.53361e-05
*RES
1 *371:X result[3] 13.2468 
*END

*D_NET *18 0.000769301
*CONN
*P result[4] O
*I *372:X O *D sky130_fd_sc_hd__buf_2
*CAP
1 result[4] 0.000344286
2 *372:X 0.000344286
3 result[4] result[5] 0
4 result[4] *329:B_N 2.65814e-06
5 result[4] *102:16 0
6 result[4] *102:18 0
7 *362:A result[4] 4.66616e-05
8 *364:A result[4] 3.14094e-05
*RES
1 *372:X result[4] 7.9737 
*END

*D_NET *19 0.00185703
*CONN
*P result[5] O
*I *373:X O *D sky130_fd_sc_hd__buf_2
*CAP
1 result[5] 0.000865332
2 *373:X 0.000865332
3 result[5] result[6] 5.43462e-05
4 result[5] *326:A2 1.88656e-05
5 result[5] *334:B2 1.18035e-05
6 result[5] *100:54 1.88656e-05
7 result[4] result[5] 0
8 *364:A result[5] 2.24901e-05
*RES
1 *373:X result[5] 5.89557 
*END

*D_NET *20 0.000720419
*CONN
*P result[6] O
*I *374:X O *D sky130_fd_sc_hd__buf_2
*CAP
1 result[6] 0.000286871
2 *374:X 0.000286871
3 result[6] result[7] 5.38666e-05
4 result[6] *283:A_N 3.84638e-05
5 result[5] result[6] 5.43462e-05
*RES
1 *374:X result[6] 7.17697 
*END

*D_NET *21 0.000801165
*CONN
*P result[7] O
*I *375:X O *D sky130_fd_sc_hd__buf_2
*CAP
1 result[7] 0.000294494
2 *375:X 0.000294494
3 result[7] *283:A_N 0.00011852
4 result[7] *102:12 1.73021e-05
5 result[6] result[7] 5.38666e-05
6 *357:A result[7] 2.24901e-05
7 *361:A result[7] 0
*RES
1 *375:X result[7] 7.1135 
*END

*D_NET *22 0.00906947
*CONN
*I *318:A2 I *D sky130_fd_sc_hd__o22a_1
*I *326:B1 I *D sky130_fd_sc_hd__o32a_1
*I *334:B1 I *D sky130_fd_sc_hd__o32a_1
*I *341:A2 I *D sky130_fd_sc_hd__o22a_1
*I *311:B1 I *D sky130_fd_sc_hd__o32a_1
*I *289:A2 I *D sky130_fd_sc_hd__o22a_1
*I *303:A2 I *D sky130_fd_sc_hd__o22a_1
*I *296:A2 I *D sky130_fd_sc_hd__o22a_1
*I *278:Y O *D sky130_fd_sc_hd__nand3_4
*CAP
1 *318:A2 0.000486606
2 *326:B1 0.000303317
3 *334:B1 9.6497e-06
4 *341:A2 0
5 *311:B1 0
6 *289:A2 0.000236206
7 *303:A2 6.73014e-05
8 *296:A2 0.000281934
9 *278:Y 2.97997e-05
10 *22:73 0.000363039
11 *22:69 0.000839348
12 *22:56 0.000564408
13 *22:14 0.000567191
14 *22:12 0.000513602
15 *22:10 0.00013494
16 *22:6 0.000367037
17 *289:A2 *80:70 1.56428e-05
18 *289:A2 *80:72 4.43682e-05
19 *289:A2 *91:32 9.02174e-05
20 *296:A2 *296:A1 4.89295e-05
21 *296:A2 *303:B1 0
22 *296:A2 *94:29 0.000132842
23 *296:A2 *94:44 3.09233e-05
24 *296:A2 *95:29 0
25 *296:A2 *98:16 5.52635e-05
26 *303:A2 *303:A1 6.02119e-05
27 *303:A2 *303:B2 1.85674e-05
28 *303:A2 *90:6 1.61831e-05
29 *318:A2 *294:A2 4.13171e-05
30 *318:A2 *318:B1 0.000275548
31 *318:A2 *334:A3 0.00026564
32 *318:A2 *335:A_N 2.44283e-05
33 *318:A2 *335:D 4.18603e-06
34 *318:A2 *79:76 0
35 *318:A2 *91:38 2.13396e-05
36 *318:A2 *91:40 0.000122904
37 *318:A2 *100:54 8.25274e-05
38 *318:A2 *107:33 0.000133657
39 *318:A2 *108:42 0.000118527
40 *318:A2 *111:50 0.000289759
41 *326:B1 *326:A2 2.89884e-05
42 *326:B1 *334:A1 4.41506e-05
43 *326:B1 *334:A3 3.00613e-05
44 *334:B1 *334:A1 8.86912e-06
45 *22:6 *311:A1 8.65961e-05
46 *22:10 *305:A2 0.000128353
47 *22:10 *91:8 0
48 *22:12 *305:A2 8.53113e-06
49 *22:12 *338:A2 1.07797e-05
50 *22:12 *91:8 0
51 *22:12 *108:93 0.000114492
52 *22:12 *110:85 2.99137e-05
53 *22:14 *301:A1 8.42777e-05
54 *22:14 *303:B1 0
55 *22:14 *94:44 0.000320563
56 *22:14 *95:29 0
57 *22:14 *104:12 5.38986e-05
58 *22:14 *108:93 0.000343329
59 *22:14 *110:85 3.54371e-05
60 *22:56 *304:A 0.000253383
61 *22:56 *304:B 5.4157e-05
62 *22:56 *311:A1 1.19928e-05
63 *22:56 *341:A1 4.89295e-05
64 *22:56 *95:38 0
65 *22:69 *321:C 0.0001947
66 *22:69 *335:A_N 0.00018305
67 *22:69 *335:B 8.70923e-05
68 *22:69 *335:D 0
69 *22:69 *341:A1 0.00021873
70 *22:73 *334:A3 3.1835e-05
*RES
1 *278:Y *22:6 2.395 
2 *22:6 *22:10 3.635 
3 *22:10 *22:12 1.635 
4 *22:12 *22:14 6.48 
5 *22:14 *296:A2 7.665 
6 *22:14 *303:A2 5.01 
7 *22:12 *289:A2 6.465 
8 *22:10 *311:B1 3.6 
9 *22:6 *22:56 5.205 
10 *22:56 *341:A2 1.6 
11 *22:56 *22:69 8.405 
12 *22:69 *22:73 2.795 
13 *22:73 *334:B1 1.8325 
14 *22:73 *326:B1 5.44 
15 *22:69 *318:A2 15.855 
*END

*D_NET *23 0.00202586
*CONN
*I *367:A I *D sky130_fd_sc_hd__clkbuf_2
*I *305:A2 I *D sky130_fd_sc_hd__a22o_1
*I *340:A2 I *D sky130_fd_sc_hd__a2111o_1
*I *279:Y O *D sky130_fd_sc_hd__nor3_1
*CAP
1 *367:A 8.09124e-05
2 *305:A2 0.000182288
3 *340:A2 0.000279861
4 *279:Y 0
5 *23:17 0.000324508
6 *23:4 0.000341168
7 *305:A2 *305:A1 1.14169e-05
8 *305:A2 *338:A2 0.000430323
9 *305:A2 *91:8 0
10 *305:A2 *105:25 0
11 *305:A2 *109:49 7.20899e-05
12 *305:A2 *110:85 1.14169e-05
13 *340:A2 *279:C 1.08758e-05
14 *340:A2 *337:D 4.6368e-06
15 *367:A *80:22 9.66106e-05
16 *23:17 *337:C 4.28674e-05
17 *23:17 *105:25 0
18 *22:10 *305:A2 0.000128353
19 *22:12 *305:A2 8.53113e-06
*RES
1 *279:Y *23:4 1.6 
2 *23:4 *340:A2 4.735 
3 *23:4 *23:17 3.125 
4 *23:17 *305:A2 8.835 
5 *23:17 *367:A 5.085 
*END

*D_NET *24 0.00777138
*CONN
*I *282:B1 I *D sky130_fd_sc_hd__a221o_1
*I *301:B1 I *D sky130_fd_sc_hd__a221o_1
*I *295:A2 I *D sky130_fd_sc_hd__a2111o_1
*I *320:B1 I *D sky130_fd_sc_hd__a22o_1
*I *317:A2 I *D sky130_fd_sc_hd__a2111o_1
*I *280:Y O *D sky130_fd_sc_hd__nor3b_2
*CAP
1 *282:B1 0.000143261
2 *301:B1 3.70233e-05
3 *295:A2 0
4 *320:B1 0.000318447
5 *317:A2 0.000291188
6 *280:Y 3.12327e-05
7 *24:61 0.000370871
8 *24:22 0.00116328
9 *24:12 0.000785998
10 *24:6 0.000454173
11 *282:B1 *282:A1 2.43661e-05
12 *282:B1 *282:A2 0.000102788
13 *282:B1 *301:A1 3.20202e-05
14 *282:B1 *301:A2 6.7444e-05
15 *282:B1 *301:B2 0.000378513
16 *282:B1 *105:29 4.28332e-05
17 *282:B1 *111:12 5.13644e-05
18 *317:A2 *290:D 1.91597e-05
19 *317:A2 *350:A 2.25231e-05
20 *317:A2 *92:104 8.49205e-05
21 *317:A2 *100:10 1.86021e-05
22 *317:A2 *100:27 2.04591e-05
23 *317:A2 *102:41 0.000316768
24 *320:B1 *294:B2 0.000420398
25 *320:B1 *294:C1 6.95739e-05
26 *320:B1 *314:A2 2.49909e-05
27 *320:B1 *316:B2 7.00066e-05
28 *320:B1 *317:A1 0.000117027
29 *320:B1 *369:A 0
30 *320:B1 *79:63 0.000644412
31 *320:B1 *98:78 0
32 *320:B1 *101:39 0.000102557
33 *320:B1 *111:44 2.49909e-05
34 *24:6 *79:34 3.83041e-05
35 *24:12 *295:D1 1.12123e-05
36 *24:12 *345:A 9.50342e-06
37 *24:12 *349:A 1.0145e-05
38 *24:12 *79:34 0.000311288
39 *24:12 *95:23 1.52945e-05
40 *24:22 *290:A_N 4.20383e-05
41 *24:22 *290:C 1.84817e-05
42 *24:22 *290:D 6.59046e-05
43 *24:22 *295:A1 8.40213e-05
44 *24:22 *295:D1 4.24997e-05
45 *24:22 *345:A 3.96263e-05
46 *24:22 *349:A 4.7878e-05
47 *24:22 *79:34 6.89424e-05
48 *24:22 *95:23 2.53191e-06
49 *24:61 *299:A2 7.23533e-05
50 *24:61 *104:61 0
51 *24:61 *105:29 0.000330441
52 *24:61 *105:41 5.16418e-05
53 *24:61 *111:12 0.000258087
*RES
1 *280:Y *24:6 2.05 
2 *24:6 *24:12 5.48 
3 *24:12 *24:22 9.74 
4 *24:22 *317:A2 10.13 
5 *24:22 *320:B1 15.08 
6 *24:12 *295:A2 3.6 
7 *24:6 *24:61 7.205 
8 *24:61 *301:B1 4.395 
9 *24:61 *282:B1 8.13 
*END

*D_NET *25 0.000664375
*CONN
*I *282:C1 I *D sky130_fd_sc_hd__a221o_1
*I *281:X O *D sky130_fd_sc_hd__and4bb_1
*CAP
1 *282:C1 0.000141156
2 *281:X 0.000141156
3 *282:C1 *297:D 0.000129484
4 *282:C1 *104:18 0.000119866
5 *282:C1 *110:51 5.17051e-05
6 *282:C1 *110:66 8.10075e-05
*RES
1 *281:X *282:C1 9.975 
*END

*D_NET *26 0.00144742
*CONN
*I *289:B1 I *D sky130_fd_sc_hd__o22a_1
*I *282:X O *D sky130_fd_sc_hd__a221o_1
*CAP
1 *289:B1 0.000338628
2 *282:X 0.000338628
3 *289:B1 *301:B2 0.000270415
4 *289:B1 *80:26 4.31106e-05
5 *289:B1 *80:36 0.0002459
6 *289:B1 *105:27 1.0183e-05
7 *289:B1 *105:29 3.98952e-05
8 *289:B1 *111:12 0.000160658
*RES
1 *282:X *289:B1 13.485 
*END

*D_NET *27 0.00404189
*CONN
*I *304:B I *D sky130_fd_sc_hd__and2_1
*I *336:A2 I *D sky130_fd_sc_hd__a221o_1
*I *327:B I *D sky130_fd_sc_hd__and2_1
*I *319:B I *D sky130_fd_sc_hd__and2_1
*I *283:X O *D sky130_fd_sc_hd__and3b_1
*CAP
1 *304:B 0.000303623
2 *336:A2 0
3 *327:B 8.33153e-06
4 *319:B 0
5 *283:X 0.0002256
6 *27:42 0.000706025
7 *27:21 0.000533044
8 *27:12 0.000347911
9 *304:B *304:A 0.000122801
10 *304:B *305:B1 4.49987e-05
11 *304:B *336:A1 0.00015729
12 *327:B *373:A 6.95479e-06
13 *27:12 *283:C 0
14 *27:12 *319:A 9.50342e-06
15 *27:12 *323:C 0
16 *27:12 *326:A1 3.57768e-05
17 *27:12 *326:A3 0.000116158
18 *27:12 *327:A 0
19 *27:12 *374:A 0.000139933
20 *27:21 *373:A 9.51101e-05
21 *27:21 *109:74 4.66108e-05
22 *27:42 *336:A1 3.5457e-05
23 *27:42 *336:B2 1.12643e-05
24 *27:42 *336:C1 4.77757e-05
25 *27:42 *341:B1 3.65885e-05
26 *27:42 *373:A 8.30678e-05
27 *27:42 *79:76 0.000159957
28 *27:42 *90:53 0
29 *27:42 *91:38 0.00012182
30 *27:42 *106:69 6.55328e-05
31 *27:42 *109:70 0.000479992
32 *27:42 *109:74 4.66108e-05
33 *27:42 *110:85 0
34 *22:56 *304:B 5.4157e-05
*RES
1 *283:X *27:12 9.725 
2 *27:12 *319:B 1.6 
3 *27:12 *27:21 2.535 
4 *27:21 *327:B 1.96 
5 *27:21 *27:42 13.4838 
6 *27:42 *336:A2 1.6 
7 *27:42 *304:B 10.8912 
*END

*D_NET *28 0.000529844
*CONN
*I *288:C1 I *D sky130_fd_sc_hd__a2111o_1
*I *284:X O *D sky130_fd_sc_hd__and4b_1
*CAP
1 *288:C1 0.000109901
2 *284:X 0.000109901
3 *288:C1 *288:A2 3.09233e-05
4 *288:C1 *288:B1 4.66826e-05
5 *288:C1 *94:109 0.00013521
6 *288:C1 *99:36 0
7 *288:C1 *111:8 6.33103e-05
8 *288:C1 *111:104 3.39151e-05
*RES
1 *284:X *288:C1 9.975 
*END

*D_NET *29 0.00059377
*CONN
*I *288:D1 I *D sky130_fd_sc_hd__a2111o_1
*I *285:X O *D sky130_fd_sc_hd__o211a_1
*CAP
1 *288:D1 0.000132658
2 *285:X 0.000132658
3 *288:D1 *285:B1 0.000118081
4 *288:D1 *288:A1 7.23602e-05
5 *288:D1 *368:A 2.42236e-05
6 *288:D1 *109:39 0.00011379
*RES
1 *285:X *288:D1 9.72 
*END

*D_NET *30 0.00205126
*CONN
*I *288:A2 I *D sky130_fd_sc_hd__a2111o_1
*I *366:A I *D sky130_fd_sc_hd__clkbuf_2
*I *302:A2 I *D sky130_fd_sc_hd__a2111o_1
*I *286:Y O *D sky130_fd_sc_hd__nor3b_1
*CAP
1 *288:A2 0.000174059
2 *366:A 4.30784e-05
3 *302:A2 0
4 *286:Y 0.000194502
5 *30:12 5.9633e-05
6 *30:8 0.000385116
7 *288:A2 *287:C 1.17114e-05
8 *288:A2 *288:B1 7.23533e-05
9 *288:A2 *79:12 1.44177e-05
10 *288:A2 *79:18 4.94473e-05
11 *288:A2 *94:109 9.42224e-05
12 *288:A2 *99:36 0.000113004
13 *366:A *90:6 2.30292e-05
14 *366:A *109:29 7.10578e-05
15 *30:8 *286:B 7.36562e-05
16 *30:8 *298:D 3.76596e-05
17 *30:8 *302:B1 3.23391e-05
18 *30:8 *79:18 0.000250945
19 *30:8 *99:25 0.000267591
20 *30:8 *99:36 0
21 *30:12 *90:6 2.75229e-05
22 *30:12 *109:29 1.91597e-05
23 *30:12 *109:39 5.83121e-06
24 *288:C1 *288:A2 3.09233e-05
*RES
1 *286:Y *30:8 9.315 
2 *30:8 *30:12 2.45 
3 *30:12 *302:A2 1.6 
4 *30:12 *366:A 2.74 
5 *30:8 *288:A2 8.235 
*END

*D_NET *31 0.000491408
*CONN
*I *288:B1 I *D sky130_fd_sc_hd__a2111o_1
*I *287:X O *D sky130_fd_sc_hd__and4b_1
*CAP
1 *288:B1 0.000157327
2 *287:X 0.000157327
3 *288:B1 *99:36 3.86529e-05
4 *288:B1 *111:8 1.90662e-05
5 *288:A2 *288:B1 7.23533e-05
6 *288:C1 *288:B1 4.66826e-05
*RES
1 *287:X *288:B1 9.555 
*END

*D_NET *32 0.000667574
*CONN
*I *289:B2 I *D sky130_fd_sc_hd__o22a_1
*I *288:X O *D sky130_fd_sc_hd__a2111o_1
*CAP
1 *289:B2 0.000138036
2 *288:X 0.000138036
3 *289:B2 *284:D 8.73389e-06
4 *289:B2 *285:B1 0
5 *289:B2 *288:A1 1.07797e-05
6 *289:B2 *368:A 0.000156375
7 *289:B2 *80:70 0.00011671
8 *289:B2 *104:130 9.30717e-05
9 *289:B2 *109:49 5.83121e-06
*RES
1 *288:X *289:B2 10.515 
*END

*D_NET *33 0.000420648
*CONN
*I *294:C1 I *D sky130_fd_sc_hd__a221o_1
*I *290:X O *D sky130_fd_sc_hd__and4b_1
*CAP
1 *294:C1 0.000145153
2 *290:X 0.000145153
3 *294:C1 *294:A2 1.92928e-05
4 *294:C1 *294:B1 0
5 *294:C1 *294:B2 1.33285e-05
6 *294:C1 *296:B1 0
7 *294:C1 *346:A 1.85674e-05
8 *294:C1 *369:A 0
9 *294:C1 *79:46 9.5799e-06
10 *294:C1 *96:14 0
11 *320:B1 *294:C1 6.95739e-05
*RES
1 *290:X *294:C1 9.48 
*END

*D_NET *34 0.000268326
*CONN
*I *295:B1 I *D sky130_fd_sc_hd__a2111o_1
*I *291:X O *D sky130_fd_sc_hd__and4b_1
*CAP
1 *295:B1 7.69719e-05
2 *291:X 7.69719e-05
3 *295:B1 *291:C 2.95028e-05
4 *295:B1 *348:A 4.99619e-05
5 *295:B1 *349:A 3.49173e-05
*RES
1 *291:X *295:B1 8.52 
*END

*D_NET *35 0.000917228
*CONN
*I *295:C1 I *D sky130_fd_sc_hd__a2111o_1
*I *292:X O *D sky130_fd_sc_hd__o211a_1
*CAP
1 *295:C1 0.000295039
2 *292:X 0.000295039
3 *295:C1 *295:D1 0.000110928
4 *295:C1 *349:A 6.60257e-06
5 *295:C1 *90:6 0.000120655
6 *295:C1 *94:29 8.89638e-05
7 *295:C1 *98:10 0
8 *295:C1 *98:78 0
*RES
1 *292:X *295:C1 12.015 
*END

*D_NET *36 0.000430733
*CONN
*I *295:D1 I *D sky130_fd_sc_hd__a2111o_1
*I *293:X O *D sky130_fd_sc_hd__and4bb_1
*CAP
1 *295:D1 8.25609e-05
2 *293:X 8.25609e-05
3 *295:D1 *349:A 7.96104e-06
4 *295:D1 *79:34 8.35068e-05
5 *295:D1 *94:29 9.50342e-06
6 *295:D1 *95:23 0
7 *295:C1 *295:D1 0.000110928
8 *24:12 *295:D1 1.12123e-05
9 *24:22 *295:D1 4.24997e-05
*RES
1 *293:X *295:D1 9.375 
*END

*D_NET *37 0.000321534
*CONN
*I *296:B1 I *D sky130_fd_sc_hd__o22a_1
*I *294:X O *D sky130_fd_sc_hd__a221o_1
*CAP
1 *296:B1 6.65026e-05
2 *294:X 6.65026e-05
3 *296:B1 *294:B1 0.000118295
4 *296:B1 *296:A1 2.05056e-05
5 *296:B1 *369:A 2.68464e-05
6 *296:B1 *98:16 2.28811e-05
7 *294:C1 *296:B1 0
*RES
1 *294:X *296:B1 4.955 
*END

*D_NET *38 0.000373333
*CONN
*I *296:B2 I *D sky130_fd_sc_hd__o22a_1
*I *295:X O *D sky130_fd_sc_hd__a2111o_1
*CAP
1 *296:B2 0.000100204
2 *295:X 0.000100204
3 *296:B2 *79:34 4.89295e-05
4 *296:B2 *98:10 7.23602e-05
5 *296:B2 *98:78 5.16348e-05
*RES
1 *295:X *296:B2 9.03 
*END

*D_NET *39 0.0016031
*CONN
*I *301:C1 I *D sky130_fd_sc_hd__a221o_1
*I *297:X O *D sky130_fd_sc_hd__and4b_1
*CAP
1 *301:C1 0.000705008
2 *297:X 0.000705008
3 *301:C1 *297:D 4.47947e-05
4 *301:C1 *80:36 4.18147e-05
5 *301:C1 *106:69 2.01453e-05
6 *301:C1 *108:57 4.66108e-05
7 *301:C1 *111:12 3.97171e-05
*RES
1 *297:X *301:C1 10.3985 
*END

*D_NET *40 0.00109529
*CONN
*I *302:B1 I *D sky130_fd_sc_hd__a2111o_1
*I *298:X O *D sky130_fd_sc_hd__and4b_1
*CAP
1 *302:B1 0.000257771
2 *298:X 0.000257771
3 *302:B1 *295:A1 1.16111e-05
4 *302:B1 *298:C 0.000122325
5 *302:B1 *298:D 2.05864e-05
6 *302:B1 *302:C1 9.54469e-05
7 *302:B1 *79:18 0.000185411
8 *302:B1 *79:34 7.06865e-05
9 *302:B1 *94:103 4.13443e-05
10 *30:8 *302:B1 3.23391e-05
*RES
1 *298:X *302:B1 12.285 
*END

*D_NET *41 0.000568123
*CONN
*I *302:C1 I *D sky130_fd_sc_hd__a2111o_1
*I *299:X O *D sky130_fd_sc_hd__o211a_1
*CAP
1 *302:C1 0.000118278
2 *299:X 0.000118278
3 *302:C1 *300:D 0.000120655
4 *302:C1 *94:103 9.37731e-05
5 *302:C1 *105:41 2.16917e-05
6 *302:B1 *302:C1 9.54469e-05
*RES
1 *299:X *302:C1 9.81 
*END

*D_NET *42 0.000404869
*CONN
*I *302:D1 I *D sky130_fd_sc_hd__a2111o_1
*I *300:X O *D sky130_fd_sc_hd__and4bb_1
*CAP
1 *302:D1 8.89083e-05
2 *300:X 8.89083e-05
3 *302:D1 *287:B 7.23533e-05
4 *302:D1 *80:36 7.23533e-05
5 *302:D1 *90:6 8.23457e-05
*RES
1 *300:X *302:D1 8.865 
*END

*D_NET *43 0.000323687
*CONN
*I *303:B1 I *D sky130_fd_sc_hd__o22a_1
*I *301:X O *D sky130_fd_sc_hd__a221o_1
*CAP
1 *303:B1 0.000104938
2 *301:X 0.000104938
3 *303:B1 *301:A1 4.82863e-05
4 *303:B1 *95:29 6.5525e-05
5 *296:A2 *303:B1 0
6 *22:14 *303:B1 0
*RES
1 *301:X *303:B1 9.03 
*END

*D_NET *44 0.000845838
*CONN
*I *303:B2 I *D sky130_fd_sc_hd__o22a_1
*I *302:X O *D sky130_fd_sc_hd__a2111o_1
*CAP
1 *303:B2 0.000164933
2 *302:X 0.000164933
3 *303:B2 *370:A 7.98062e-05
4 *303:B2 *90:6 0.000417599
5 *303:A2 *303:B2 1.85674e-05
*RES
1 *302:X *303:B2 7.46 
*END

*D_NET *45 0.000743899
*CONN
*I *311:A1 I *D sky130_fd_sc_hd__o32a_1
*I *304:X O *D sky130_fd_sc_hd__and2_1
*CAP
1 *311:A1 0.000233138
2 *304:X 0.000233138
3 *311:A1 *91:8 0.000116158
4 *311:A1 *95:29 6.28765e-05
5 *22:6 *311:A1 8.65961e-05
6 *22:56 *311:A1 1.19928e-05
*RES
1 *304:X *311:A1 10.755 
*END

*D_NET *46 0.000390651
*CONN
*I *311:A2 I *D sky130_fd_sc_hd__o32a_1
*I *305:X O *D sky130_fd_sc_hd__a22o_1
*CAP
1 *311:A2 0.000104835
2 *305:X 0.000104835
3 *311:A2 *311:A3 4.82863e-05
4 *311:A2 *311:B2 3.74161e-05
5 *311:A2 *338:A2 8.40213e-05
6 *311:A2 *109:49 1.12578e-05
*RES
1 *305:X *311:A2 5.03 
*END

*D_NET *47 0.000383733
*CONN
*I *310:A I *D sky130_fd_sc_hd__or4_1
*I *306:X O *D sky130_fd_sc_hd__and4bb_1
*CAP
1 *310:A 0.000116996
2 *306:X 0.000116996
3 *310:A *307:A2 0
4 *310:A *310:B 7.47215e-05
5 *310:A *311:A3 7.23602e-05
6 *310:A *99:62 2.65814e-06
7 result[3] *310:A 0
*RES
1 *306:X *310:A 9.285 
*END

*D_NET *48 0.000464897
*CONN
*I *310:B I *D sky130_fd_sc_hd__or4_1
*I *307:X O *D sky130_fd_sc_hd__o211a_1
*CAP
1 *310:B 0.000136661
2 *307:X 0.000136661
3 *310:B *307:A2 0
4 *310:B *310:C 0.000116853
5 *310:A *310:B 7.47215e-05
*RES
1 *307:X *310:B 9.795 
*END

*D_NET *49 0.000867877
*CONN
*I *310:C I *D sky130_fd_sc_hd__or4_1
*I *308:X O *D sky130_fd_sc_hd__and4b_1
*CAP
1 *310:C 0.00024534
2 *308:X 0.00024534
3 *310:C *307:A1 0.000198046
4 *310:C *307:B1 3.47837e-05
5 result[3] *310:C 2.75145e-05
6 *310:B *310:C 0.000116853
*RES
1 *308:X *310:C 11.205 
*END

*D_NET *50 6.92906e-05
*CONN
*I *310:D I *D sky130_fd_sc_hd__or4_1
*I *309:X O *D sky130_fd_sc_hd__and4bb_1
*CAP
1 *310:D 1.96262e-05
2 *309:X 1.96262e-05
3 result[3] *310:D 3.00381e-05
*RES
1 *309:X *310:D 3.65 
*END

*D_NET *51 0.00216762
*CONN
*I *311:A3 I *D sky130_fd_sc_hd__o32a_1
*I *310:X O *D sky130_fd_sc_hd__or4_1
*CAP
1 *311:A3 0.000632402
2 *310:X 0.000632402
3 *311:A3 *307:A2 0
4 *311:A3 *79:8 0.000235568
5 *311:A3 *99:62 0.000163019
6 *311:A3 *109:49 0.000265383
7 result[3] *311:A3 8.72814e-05
8 *310:A *311:A3 7.23602e-05
9 *311:A2 *311:A3 4.82863e-05
10 *356:A *311:A3 3.09233e-05
*RES
1 *310:X *311:A3 19.71 
*END

*D_NET *52 0.000915799
*CONN
*I *316:C1 I *D sky130_fd_sc_hd__a221o_1
*I *312:X O *D sky130_fd_sc_hd__and4b_1
*CAP
1 *316:C1 0.000277569
2 *312:X 0.000277569
3 *316:C1 *316:B2 0.00011099
4 *316:C1 *106:44 6.01194e-05
5 *316:C1 *107:44 0.00018955
*RES
1 *312:X *316:C1 11.1 
*END

*D_NET *53 0.00037497
*CONN
*I *317:B1 I *D sky130_fd_sc_hd__a2111o_1
*I *313:X O *D sky130_fd_sc_hd__and4bb_1
*CAP
1 *317:B1 0.00010633
2 *313:X 0.00010633
3 *317:B1 *102:41 0.000162311
*RES
1 *313:X *317:B1 4.685 
*END

*D_NET *54 0.000407514
*CONN
*I *317:C1 I *D sky130_fd_sc_hd__a2111o_1
*I *314:X O *D sky130_fd_sc_hd__o211a_1
*CAP
1 *317:C1 6.53835e-05
2 *314:X 6.53835e-05
3 *317:C1 *314:A2 3.45679e-05
4 *317:C1 *317:D1 2.04683e-05
5 *317:C1 *318:B2 2.38573e-05
6 *317:C1 *102:41 0.000197853
*RES
1 *314:X *317:C1 5.495 
*END

*D_NET *55 0.000875552
*CONN
*I *317:D1 I *D sky130_fd_sc_hd__a2111o_1
*I *315:X O *D sky130_fd_sc_hd__and4b_1
*CAP
1 *317:D1 0.000313688
2 *315:X 0.000313688
3 *317:D1 *314:A2 8.53113e-06
4 *317:D1 *318:B2 4.82919e-05
5 *317:D1 *92:104 2.97004e-06
6 *317:D1 *100:10 0
7 *317:D1 *100:27 0
8 *317:D1 *108:8 0.00012657
9 *317:D1 *108:25 4.13433e-05
10 *317:C1 *317:D1 2.04683e-05
*RES
1 *315:X *317:D1 11.595 
*END

*D_NET *56 0.000878249
*CONN
*I *318:B1 I *D sky130_fd_sc_hd__o22a_1
*I *316:X O *D sky130_fd_sc_hd__a221o_1
*CAP
1 *318:B1 0.000195374
2 *316:X 0.000195374
3 *318:B1 *316:A2 5.83121e-06
4 *318:B1 *318:A1 3.00381e-05
5 *318:B1 *110:29 0.000176083
6 *318:A2 *318:B1 0.000275548
*RES
1 *316:X *318:B1 8.27 
*END

*D_NET *57 0.00102875
*CONN
*I *318:B2 I *D sky130_fd_sc_hd__o22a_1
*I *317:X O *D sky130_fd_sc_hd__a2111o_1
*CAP
1 *318:B2 0.000260903
2 *317:X 0.000260903
3 *318:B2 *314:A2 0.000131725
4 *318:B2 *318:A1 5.53249e-06
5 *318:B2 *333:A 0.000139245
6 *318:B2 *92:104 0.000158297
7 *318:B2 *100:54 0
8 *317:C1 *318:B2 2.38573e-05
9 *317:D1 *318:B2 4.82919e-05
*RES
1 *317:X *318:B2 12.36 
*END

*D_NET *58 0.000422155
*CONN
*I *326:A1 I *D sky130_fd_sc_hd__o32a_1
*I *319:X O *D sky130_fd_sc_hd__and2_1
*CAP
1 *326:A1 5.20403e-05
2 *319:X 5.20403e-05
3 *326:A1 *283:C 3.76596e-05
4 *326:A1 *326:B2 4.82919e-05
5 *326:A1 *373:A 7.4027e-05
6 *326:A1 *374:A 7.4027e-05
7 *326:A1 *375:A 4.82919e-05
8 *27:12 *326:A1 3.57768e-05
*RES
1 *319:X *326:A1 9.285 
*END

*D_NET *59 0.00199292
*CONN
*I *326:A2 I *D sky130_fd_sc_hd__o32a_1
*I *320:X O *D sky130_fd_sc_hd__a22o_1
*CAP
1 *326:A2 0.000500822
2 *320:X 0.000500822
3 *326:A2 *314:A2 0.0001947
4 *326:A2 *318:A1 0.00012587
5 *326:A2 *326:B2 8.65961e-05
6 *326:A2 *334:A1 9.88715e-05
7 *326:A2 *334:A2 7.23533e-05
8 *326:A2 *334:A3 2.49909e-05
9 *326:A2 *374:A 0.000199833
10 *326:A2 *100:54 0.000140204
11 *326:A2 *107:16 0