*SPEF "ieee 1481-1999"
*DESIGN "alu"
*DATE "00:54:24 Saturday May 16, 2026"
*VENDOR "The OpenROAD Project"
*PROGRAM "OpenROAD"
*VERSION "v2.0-16235-gedf00dff9"
*DESIGN_FLOW "NAME_SCOPE LOCAL" "PIN_CAP NONE"
*DIVIDER /
*DELIMITER :
*BUS_DELIMITER []
*T_UNIT 1 NS
*C_UNIT 1 PF
*R_UNIT 1 OHM
*L_UNIT 1 HENRY

*NAME_MAP
*3 data1[0]
*4 data1[1]
*5 data1[2]
*6 data1[3]
*7 data1[4]
*8 data1[5]
*9 data1[6]
*10 data1[7]
*11 data2[0]
*12 data2[1]
*13 data2[2]
*14 data2[3]
*15 data2[4]
*16 data2[5]
*17 data2[6]
*18 data2[7]
*19 op[0]
*20 op[1]
*21 op[2]
*22 res[0]
*23 res[1]
*24 res[2]
*25 res[3]
*26 res[4]
*27 res[5]
*28 res[6]
*29 res[7]
*30 z
*31 _000_
*32 _001_
*33 _002_
*34 _003_
*35 _004_
*36 _005_
*37 _006_
*38 _007_
*39 _008_
*40 _009_
*41 _010_
*42 _011_
*43 _012_
*44 _013_
*45 _014_
*46 _015_
*47 _016_
*48 _017_
*49 _018_
*50 _019_
*51 _020_
*52 _021_
*53 _022_
*54 _023_
*55 _024_
*56 _025_
*57 _026_
*58 _027_
*59 _028_
*60 _029_
*61 _030_
*62 _031_
*63 _032_
*64 _033_
*65 _034_
*66 _035_
*67 _036_
*68 _037_
*69 _038_
*70 _039_
*71 _040_
*72 _041_
*73 _042_
*74 _043_
*75 _044_
*76 _045_
*77 _046_
*78 _047_
*79 _048_
*80 _049_
*81 _050_
*82 _051_
*83 _052_
*84 _053_
*85 _054_
*86 _055_
*87 _056_
*88 _057_
*89 _058_
*90 _059_
*91 _060_
*92 _061_
*93 _062_
*94 _063_
*95 _064_
*96 _065_
*97 _066_
*98 _067_
*99 _068_
*100 _069_
*101 _070_
*102 _071_
*103 _072_
*104 _073_
*105 _074_
*106 _075_
*107 _076_
*108 _077_
*109 _078_
*110 _079_
*111 _080_
*112 _081_
*113 _082_
*114 _083_
*115 _084_
*116 _085_
*117 _086_
*118 _087_
*119 _088_
*120 _089_
*121 _090_
*122 _091_
*123 _092_
*124 _093_
*125 _094_
*126 _095_
*127 _096_
*128 _097_
*129 _098_
*130 _099_
*131 _100_
*132 _101_
*133 _102_
*134 _103_
*135 _104_
*136 _105_
*137 _106_
*138 _107_
*139 _108_
*140 _109_
*141 _110_
*142 _111_
*143 _112_
*144 _113_
*145 _114_
*146 _115_
*147 _116_
*148 _117_
*149 _118_
*150 _119_
*151 _120_
*152 _121_
*153 _122_
*154 _123_
*155 _124_
*156 _125_
*157 net1
*158 net10
*159 net11
*160 net12
*161 net13
*162 net14
*163 net15
*164 net16
*165 net17
*166 net18
*167 net19
*168 net2
*169 net20
*170 net21
*171 net22
*172 net23
*173 net24
*174 net25
*175 net26
*176 net27
*177 net28
*178 net29
*179 net3
*180 net30
*181 net31
*182 net32
*183 net33
*184 net34
*185 net35
*186 net36
*187 net37
*188 net38
*189 net39
*190 net4
*191 net40
*192 net41
*193 net42
*194 net43
*195 net5
*196 net6
*197 net7
*198 net8
*199 net9
*200 FILLER_0_100
*201 FILLER_0_103
*202 FILLER_0_12
*203 FILLER_0_15
*204 FILLER_0_18
*205 FILLER_0_21
*206 FILLER_0_27
*207 FILLER_0_29
*208 FILLER_0_3
*209 FILLER_0_32
*210 FILLER_0_41
*211 FILLER_0_44
*212 FILLER_0_47
*213 FILLER_0_50
*214 FILLER_0_53
*215 FILLER_0_57
*216 FILLER_0_6
*217 FILLER_0_60
*218 FILLER_0_63
*219 FILLER_0_66
*220 FILLER_0_69
*221 FILLER_0_72
*222 FILLER_0_75
*223 FILLER_0_78
*224 FILLER_0_81
*225 FILLER_0_85
*226 FILLER_0_88
*227 FILLER_0_9
*228 FILLER_0_91
*229 FILLER_0_94
*230 FILLER_0_97
*231 FILLER_10_11
*232 FILLER_10_26
*233 FILLER_10_29
*234 FILLER_10_32
*235 FILLER_10_35
*236 FILLER_10_38
*237 FILLER_10_41
*238 FILLER_10_44
*239 FILLER_10_60
*240 FILLER_10_63
*241 FILLER_10_66
*242 FILLER_10_69
*243 FILLER_10_85
*244 FILLER_10_88
*245 FILLER_10_91
*246 FILLER_11_12
*247 FILLER_11_15
*248 FILLER_11_28
*249 FILLER_11_31
*250 FILLER_11_43
*251 FILLER_11_46
*252 FILLER_11_57
*253 FILLER_11_68
*254 FILLER_11_71
*255 FILLER_11_81
*256 FILLER_11_84
*257 FILLER_12_103
*258 FILLER_12_22
*259 FILLER_12_25
*260 FILLER_12_29
*261 FILLER_12_3
*262 FILLER_12_32
*263 FILLER_12_35
*264 FILLER_12_38
*265 FILLER_12_41
*266 FILLER_12_44
*267 FILLER_12_47
*268 FILLER_12_50
*269 FILLER_12_53
*270 FILLER_12_56
*271 FILLER_12_59
*272 FILLER_12_63
*273 FILLER_12_66
*274 FILLER_12_69
*275 FILLER_12_82
*276 FILLER_12_85
*277 FILLER_13_24
*278 FILLER_13_27
*279 FILLER_13_3
*280 FILLER_13_54
*281 FILLER_13_57
*282 FILLER_13_6
*283 FILLER_13_60
*284 FILLER_13_63
*285 FILLER_13_66
*286 FILLER_13_76
*287 FILLER_13_79
*288 FILLER_13_82
*289 FILLER_13_85
*290 FILLER_13_88
*291 FILLER_14_15
*292 FILLER_14_18
*293 FILLER_14_21
*294 FILLER_14_24
*295 FILLER_14_27
*296 FILLER_14_29
*297 FILLER_14_3
*298 FILLER_14_32
*299 FILLER_14_50
*300 FILLER_14_53
*301 FILLER_14_56
*302 FILLER_14_6
*303 FILLER_14_72
*304 FILLER_14_75
*305 FILLER_14_78
*306 FILLER_14_81
*307 FILLER_14_85
*308 FILLER_14_88
*309 FILLER_14_9
*310 FILLER_14_91
*311 FILLER_15_12
*312 FILLER_15_23
*313 FILLER_15_26
*314 FILLER_15_29
*315 FILLER_15_3
*316 FILLER_15_57
*317 FILLER_15_85
*318 FILLER_15_88
*319 FILLER_15_97
*320 FILLER_16_104
*321 FILLER_16_25
*322 FILLER_16_3
*323 FILLER_16_48
*324 FILLER_16_51
*325 FILLER_16_54
*326 FILLER_17_101
*327 FILLER_17_104
*328 FILLER_17_16
*329 FILLER_17_23
*330 FILLER_17_29
*331 FILLER_17_3
*332 FILLER_17_48
*333 FILLER_17_51
*334 FILLER_17_55
*335 FILLER_17_57
*336 FILLER_17_6
*337 FILLER_17_63
*338 FILLER_17_66
*339 FILLER_17_69
*340 FILLER_17_72
*341 FILLER_17_77
*342 FILLER_17_83
*343 FILLER_17_85
*344 FILLER_17_9
*345 FILLER_17_95
*346 FILLER_17_98
*347 FILLER_1_100
*348 FILLER_1_103
*349 FILLER_1_12
*350 FILLER_1_15
*351 FILLER_1_18
*352 FILLER_1_21
*353 FILLER_1_24
*354 FILLER_1_27
*355 FILLER_1_3
*356 FILLER_1_30
*357 FILLER_1_41
*358 FILLER_1_6
*359 FILLER_1_61
*360 FILLER_1_64
*361 FILLER_1_67
*362 FILLER_1_70
*363 FILLER_1_73
*364 FILLER_1_76
*365 FILLER_1_79
*366 FILLER_1_82
*367 FILLER_1_85
*368 FILLER_1_88
*369 FILLER_1_9
*370 FILLER_1_91
*371 FILLER_1_94
*372 FILLER_1_97
*373 FILLER_2_100
*374 FILLER_2_12
*375 FILLER_2_15
*376 FILLER_2_18
*377 FILLER_2_21
*378 FILLER_2_24
*379 FILLER_2_27
*380 FILLER_2_3
*381 FILLER_2_49
*382 FILLER_2_58
*383 FILLER_2_6
*384 FILLER_2_71
*385 FILLER_2_74
*386 FILLER_2_82
*387 FILLER_2_85
*388 FILLER_2_88
*389 FILLER_2_9
*390 FILLER_2_91
*391 FILLER_2_94
*392 FILLER_2_97
*393 FILLER_3_100
*394 FILLER_3_12
*395 FILLER_3_15
*396 FILLER_3_18
*397 FILLER_3_21
*398 FILLER_3_24
*399 FILLER_3_27
*400 FILLER_3_3
*401 FILLER_3_30
*402 FILLER_3_45
*403 FILLER_3_57
*404 FILLER_3_6
*405 FILLER_3_75
*406 FILLER_3_9
*407 FILLER_3_92
*408 FILLER_4_12
*409 FILLER_4_15
*410 FILLER_4_18
*411 FILLER_4_21
*412 FILLER_4_24
*413 FILLER_4_27
*414 FILLER_4_29
*415 FILLER_4_3
*416 FILLER_4_52
*417 FILLER_4_6
*418 FILLER_4_68
*419 FILLER_4_71
*420 FILLER_4_74
*421 FILLER_4_82
*422 FILLER_4_9
*423 FILLER_4_93
*424 FILLER_5_12
*425 FILLER_5_15
*426 FILLER_5_28
*427 FILLER_5_31
*428 FILLER_5_34
*429 FILLER_5_50
*430 FILLER_5_53
*431 FILLER_5_6
*432 FILLER_5_65
*433 FILLER_5_68
*434 FILLER_5_71
*435 FILLER_5_74
*436 FILLER_5_77
*437 FILLER_5_9
*438 FILLER_5_96
*439 FILLER_6_34
*440 FILLER_6_37
*441 FILLER_6_43
*442 FILLER_6_46
*443 FILLER_6_49
*444 FILLER_6_52
*445 FILLER_6_55
*446 FILLER_6_6
*447 FILLER_6_65
*448 FILLER_6_73
*449 FILLER_6_76
*450 FILLER_6_79
*451 FILLER_6_82
*452 FILLER_6_9
*453 FILLER_6_92
*454 FILLER_7_102
*455 FILLER_7_12
*456 FILLER_7_20
*457 FILLER_7_26
*458 FILLER_7_29
*459 FILLER_7_32
*460 FILLER_7_35
*461 FILLER_7_46
*462 FILLER_7_57
*463 FILLER_7_67
*464 FILLER_7_70
*465 FILLER_8_100
*466 FILLER_8_103
*467 FILLER_8_15
*468 FILLER_8_18
*469 FILLER_8_21
*470 FILLER_8_24
*471 FILLER_8_27
*472 FILLER_8_36
*473 FILLER_8_49
*474 FILLER_8_52
*475 FILLER_8_60
*476 FILLER_8_63
*477 FILLER_8_66
*478 FILLER_8_69
*479 FILLER_8_72
*480 FILLER_8_75
*481 FILLER_8_78
*482 FILLER_8_81
*483 FILLER_8_97
*484 FILLER_9_27
*485 FILLER_9_3
*486 FILLER_9_30
*487 FILLER_9_48
*488 FILLER_9_65
*489 FILLER_9_68
*490 FILLER_9_71
*491 FILLER_9_74
*492 FILLER_9_97
*493 PHY_EDGE_ROW_0_Left_18
*494 PHY_EDGE_ROW_0_Right_0
*495 PHY_EDGE_ROW_10_Left_28
*496 PHY_EDGE_ROW_10_Right_10
*497 PHY_EDGE_ROW_11_Left_29
*498 PHY_EDGE_ROW_11_Right_11
*499 PHY_EDGE_ROW_12_Left_30
*500 PHY_EDGE_ROW_12_Right_12
*501 PHY_EDGE_ROW_13_Left_31
*502 PHY_EDGE_ROW_13_Right_13
*503 PHY_EDGE_ROW_14_Left_32
*504 PHY_EDGE_ROW_14_Right_14
*505 PHY_EDGE_ROW_15_Left_33
*506 PHY_EDGE_ROW_15_Right_15
*507 PHY_EDGE_ROW_16_Left_34
*508 PHY_EDGE_ROW_16_Right_16
*509 PHY_EDGE_ROW_17_Left_35
*510 PHY_EDGE_ROW_17_Right_17
*511 PHY_EDGE_ROW_1_Left_19
*512 PHY_EDGE_ROW_1_Right_1
*513 PHY_EDGE_ROW_2_Left_20
*514 PHY_EDGE_ROW_2_Right_2
*515 PHY_EDGE_ROW_3_Left_21
*516 PHY_EDGE_ROW_3_Right_3
*517 PHY_EDGE_ROW_4_Left_22
*518 PHY_EDGE_ROW_4_Right_4
*519 PHY_EDGE_ROW_5_Left_23
*520 PHY_EDGE_ROW_5_Right_5
*521 PHY_EDGE_ROW_6_Left_24
*522 PHY_EDGE_ROW_6_Right_6
*523 PHY_EDGE_ROW_7_Left_25
*524 PHY_EDGE_ROW_7_Right_7
*525 PHY_EDGE_ROW_8_Left_26
*526 PHY_EDGE_ROW_8_Right_8
*527 PHY_EDGE_ROW_9_Left_27
*528 PHY_EDGE_ROW_9_Right_9
*529 TAP_TAPCELL_ROW_0_36
*530 TAP_TAPCELL_ROW_0_37
*531 TAP_TAPCELL_ROW_0_38
*532 TAP_TAPCELL_ROW_10_52
*533 TAP_TAPCELL_ROW_10_53
*534 TAP_TAPCELL_ROW_11_54
*535 TAP_TAPCELL_ROW_12_55
*536 TAP_TAPCELL_ROW_12_56
*537 TAP_TAPCELL_ROW_13_57
*538 TAP_TAPCELL_ROW_14_58
*539 TAP_TAPCELL_ROW_14_59
*540 TAP_TAPCELL_ROW_15_60
*541 TAP_TAPCELL_ROW_16_61
*542 TAP_TAPCELL_ROW_16_62
*543 TAP_TAPCELL_ROW_17_63
*544 TAP_TAPCELL_ROW_17_64
*545 TAP_TAPCELL_ROW_17_65
*546 TAP_TAPCELL_ROW_1_39
*547 TAP_TAPCELL_ROW_2_40
*548 TAP_TAPCELL_ROW_2_41
*549 TAP_TAPCELL_ROW_3_42
*550 TAP_TAPCELL_ROW_4_43
*551 TAP_TAPCELL_ROW_4_44
*552 TAP_TAPCELL_ROW_5_45
*553 TAP_TAPCELL_ROW_6_46
*554 TAP_TAPCELL_ROW_6_47
*555 TAP_TAPCELL_ROW_7_48
*556 TAP_TAPCELL_ROW_8_49
*557 TAP_TAPCELL_ROW_8_50
*558 TAP_TAPCELL_ROW_9_51
*559 _126_
*560 _127_
*561 _128_
*562 _129_
*563 _130_
*564 _131_
*565 _132_
*566 _133_
*567 _134_
*568 _135_
*569 _136_
*570 _137_
*571 _138_
*572 _139_
*573 _140_
*574 _141_
*575 _142_
*576 _143_
*577 _144_
*578 _145_
*579 _146_
*580 _147_
*581 _148_
*582 _149_
*583 _150_
*584 _151_
*585 _152_
*586 _153_
*587 _154_
*588 _155_
*589 _156_
*590 _157_
*591 _158_
*592 _159_
*593 _160_
*594 _161_
*595 _162_
*596 _163_
*597 _164_
*598 _165_
*599 _166_
*600 _167_
*601 _168_
*602 _169_
*603 _170_
*604 _171_
*605 _172_
*606 _173_
*607 _174_
*608 _175_
*609 _176_
*610 _177_
*611 _178_
*612 _179_
*613 _180_
*614 _181_
*615 _182_
*616 _183_
*617 _184_
*618 _185_
*619 _186_
*620 _187_
*621 _188_
*622 _189_
*623 _190_
*624 _191_
*625 _192_
*626 _193_
*627 _194_
*628 _195_
*629 _196_
*630 _197_
*631 _198_
*632 _199_
*633 _200_
*634 _201_
*635 _202_
*636 _203_
*637 _204_
*638 _205_
*639 _206_
*640 _207_
*641 _208_
*642 _209_
*643 _210_
*644 _211_
*645 _212_
*646 _213_
*647 _214_
*648 _215_
*649 _216_
*650 _217_
*651 _218_
*652 _219_
*653 _220_
*654 _221_
*655 _222_
*656 _223_
*657 _224_
*658 _225_
*659 _226_
*660 _227_
*661 _228_
*662 _229_
*663 _230_
*664 _231_
*665 _232_
*666 _233_
*667 _234_
*668 _235_
*669 _236_
*670 _237_
*671 _238_
*672 _239_
*673 _240_
*674 _241_
*675 _242_
*676 _243_
*677 _244_
*678 _245_
*679 _246_
*680 _247_
*681 _248_
*682 _249_
*683 _250_
*684 _251_
*685 _252_
*686 _253_
*687 _254_
*688 _255_
*689 _256_
*690 _257_
*691 _258_
*692 _259_
*693 _260_
*694 fanout30
*695 fanout34
*696 fanout35
*697 fanout36
*698 fanout37
*699 fanout38
*700 fanout39
*701 fanout40
*702 fanout41
*703 fanout42
*704 fanout43
*705 input1
*706 input10
*707 input11
*708 input12
*709 input13
*710 input14
*711 input15
*712 input16
*713 input17
*714 input18
*715 input19
*716 input2
*717 input3
*718 input4
*719 input5
*720 input6
*721 input7
*722 input8
*723 input9
*724 max_cap29
*725 max_cap31
*726 max_cap32
*727 max_cap33
*728 output20
*729 output21
*730 output22
*731 output23
*732 output24
*733 output25
*734 output26
*735 output27
*736 output28

*PORTS
data1[0] I
data1[1] I
data1[2] I
data1[3] I
data1[4] I
data1[5] I
data1[6] I
data1[7] I
data2[0] I
data2[1] I
data2[2] I
data2[3] I
data2[4] I
data2[5] I
data2[6] I
data2[7] I
op[0] I
op[1] I
op[2] I
res[0] O
res[1] O
res[2] O
res[3] O
res[4] O
res[5] O
res[6] O
res[7] O
z O

*D_NET *3 0.000951189
*CONN
*P data1[0] I
*I *705:A I *D sky130_fd_sc_hd__buf_1
*CAP
1 data1[0] 0.000238073
2 *705:A 0.000238073
3 *705:A *706:A 8.57347e-05
4 *705:A *720:A 5.94357e-05
5 *705:A *723:A 0
6 *705:A *186:111 0.000190051
7 *705:A *190:97 6.67439e-05
8 *705:A *194:25 7.3078e-05
*RES
1 data1[0] *705:A 20.4641 
*END

*D_NET *4 0.00108829
*CONN
*P data1[1] I
*I *716:A I *D sky130_fd_sc_hd__clkbuf_1
*CAP
1 data1[1] 0.000322157
2 *716:A 0.000322157
3 *716:A *668:B 0.000139893
4 *716:A *721:A 7.69163e-05
5 *716:A *722:A 8.92098e-05
6 *716:A *186:27 0.000137962
*RES
1 data1[1] *716:A 19.929 
*END

*D_NET *5 0.000925897
*CONN
*P data1[2] I
*I *717:A I *D sky130_fd_sc_hd__clkbuf_1
*CAP
1 data1[2] 0.000286722
2 *717:A 0.000286722
3 *717:A res[0] 9.28756e-05
4 *717:A res[1] 0
5 *717:A *679:B1 0.000142315
6 *717:A *718:A 8.57347e-05
7 *717:A *190:20 3.15282e-05
*RES
1 data1[2] *717:A 19.929 
*END

*D_NET *6 0.000583063
*CONN
*P data1[3] I
*I *718:A I *D sky130_fd_sc_hd__buf_2
*CAP
1 data1[3] 0.000248664
2 *718:A 0.000248664
3 *718:A *679:B1 0
4 *717:A *718:A 8.57347e-05
*RES
1 data1[3] *718:A 19.3371 
*END

*D_NET *7 0.000451846
*CONN
*P data1[4] I
*I *719:A I *D sky130_fd_sc_hd__buf_2
*CAP
1 data1[4] 0.000183056
2 *719:A 0.000183056
3 *719:A *721:A 8.57347e-05
*RES
1 data1[4] *719:A 18.1229 
*END

*D_NET *8 0.000837841
*CONN
*P data1[5] I
*I *720:A I *D sky130_fd_sc_hd__buf_2
*CAP
1 data1[5] 0.000190806
2 *720:A 0.000190806
3 *720:A *722:A 7.48451e-05
4 *720:A *186:111 0.000101787
5 *720:A *190:97 0.000220161
6 *705:A *720:A 5.94357e-05
*RES
1 data1[5] *720:A 20.2479 
*END

*D_NET *9 0.000470459
*CONN
*P data1[6] I
*I *721:A I *D sky130_fd_sc_hd__clkbuf_1
*CAP
1 data1[6] 0.000143333
2 *721:A 0.000143333
3 *721:A *671:A1 2.11419e-05
4 *721:A *182:57 0
5 *716:A *721:A 7.69163e-05
6 *719:A *721:A 8.57347e-05
*RES
1 data1[6] *721:A 18.1229 
*END

*D_NET *10 0.000721379
*CONN
*P data1[7] I
*I *722:A I *D sky130_fd_sc_hd__clkbuf_2
*CAP
1 data1[7] 0.000216688
2 *722:A 0.000216688
3 *722:A *671:A1 4.56225e-05
4 *722:A *186:27 6.90755e-05
5 *722:A *190:97 0
6 *722:A *197:12 9.25014e-06
7 *716:A *722:A 8.92098e-05
8 *720:A *722:A 7.48451e-05
*RES
1 data1[7] *722:A 19.1056 
*END

*D_NET *11 0.000767355
*CONN
*P data2[0] I
*I *723:A I *D sky130_fd_sc_hd__clkbuf_2
*CAP
1 data2[0] 0.000229308
2 *723:A 0.000229308
3 *723:A res[1] 8.32614e-05
4 *723:A *706:A 8.31618e-05
5 *723:A *186:126 0.000142315
6 *705:A *723:A 0
*RES
1 data2[0] *723:A 19.7128 
*END

*D_NET *12 0.000509988
*CONN
*P data2[1] I
*I *706:A I *D sky130_fd_sc_hd__buf_1
*CAP
1 data2[1] 0.000151983
2 *706:A 0.000151983
3 *706:A *186:111 3.71247e-05
4 *705:A *706:A 8.57347e-05
5 *723:A *706:A 8.31618e-05
*RES
1 data2[1] *706:A 18.73 
*END

*D_NET *13 0.000933576
*CONN
*P data2[2] I
*I *707:A I *D sky130_fd_sc_hd__buf_1
*CAP
1 data2[2] 0.000466788
2 *707:A 0.000466788
3 *707:A res[2] 0
4 *707:A *678:A2 0
*RES
1 data2[2] *707:A 23.05 
*END

*D_NET *14 0.000932988
*CONN
*P data2[3] I
*I *708:A I *D sky130_fd_sc_hd__buf_1
*CAP
1 data2[3] 0.000466494
2 *708:A 0.000466494
3 *708:A res[3] 0
4 *708:A *709:A 0
5 *708:A *731:A 0
*RES
1 data2[3] *708:A 23.05 
*END

*D_NET *15 0.000944959
*CONN
*P data2[4] I
*I *709:A I *D sky130_fd_sc_hd__clkbuf_1
*CAP
1 data2[4] 0.000472479
2 *709:A 0.000472479
3 *709:A *713:A 0
4 *708:A *709:A 0
*RES
1 data2[4] *709:A 23.05 
*END

*D_NET *16 0.000534185
*CONN
*P data2[5] I
*I *710:A I *D sky130_fd_sc_hd__clkbuf_1
*CAP
1 data2[5] 0.000236739
2 *710:A 0.000236739
3 *710:A res[7] 3.19385e-05
4 *710:A *699:A 0
5 *710:A *712:A 2.87684e-05
*RES
1 data2[5] *710:A 18.73 
*END

*D_NET *17 0.00084331
*CONN
*P data2[6] I
*I *711:A I *D sky130_fd_sc_hd__clkbuf_1
*CAP
1 data2[6] 0.000421655
2 *711:A 0.000421655
*RES
1 data2[6] *711:A 21.8357 
*END

*D_NET *18 0.000672993
*CONN
*P data2[7] I
*I *712:A I *D sky130_fd_sc_hd__clkbuf_1
*CAP
1 data2[7] 0.000322112
2 *712:A 0.000322112
3 *710:A *712:A 2.87684e-05
*RES
1 data2[7] *712:A 21.391 
*END

*D_NET *19 0.00118494
*CONN
*P op[0] I
*I *713:A I *D sky130_fd_sc_hd__buf_2
*CAP
1 op[0] 0.000523717
2 *713:A 0.000523717
3 *713:A *581:C_N 5.49544e-05
4 *713:A *714:A 0
5 *713:A *110:14 8.25512e-05
6 *709:A *713:A 0
*RES
1 op[0] *713:A 24.4071 
*END

*D_NET *20 0.00104246
*CONN
*P op[1] I
*I *714:A I *D sky130_fd_sc_hd__buf_2
*CAP
1 op[1] 0.000491243
2 *714:A 0.000491243
3 *714:A *598:C_N 2.8266e-06
4 *714:A *715:A 0
5 *714:A *167:56 5.71472e-05
6 *713:A *714:A 0
*RES
1 op[1] *714:A 23.5857 
*END

*D_NET *21 0.000941408
*CONN
*P op[2] I
*I *715:A I *D sky130_fd_sc_hd__clkbuf_2
*CAP
1 op[2] 0.000470704
2 *715:A 0.000470704
3 *714:A *715:A 0
*RES
1 op[2] *715:A 23.1571 
*END

*D_NET *22 0.000664028
*CONN
*P res[0] O
*I *728:X O *D sky130_fd_sc_hd__buf_2
*CAP
1 res[0] 0.000212202
2 *728:X 0.000212202
3 res[0] res[1] 9.28756e-05
4 res[0] *644:B 3.28897e-05
5 res[0] *102:12 2.09826e-05
6 *717:A res[0] 9.28756e-05
*RES
1 *728:X res[0] 19.4092 
*END

*D_NET *23 0.00155213
*CONN
*P res[1] O
*I *729:X O *D sky130_fd_sc_hd__buf_2
*CAP
1 res[1] 0.000602126
2 *729:X 0.000602126
3 res[1] *645:B1 6.95699e-05
4 res[1] *180:113 4.42967e-05
5 res[1] *185:36 5.78786e-05
6 res[0] res[1] 9.28756e-05
7 *717:A res[1] 0
8 *723:A res[1] 8.32614e-05
*RES
1 *729:X res[1] 19.811 
*END

*D_NET *24 0.000911701
*CONN
*P res[2] O
*I *730:X O *D sky130_fd_sc_hd__buf_2
*CAP
1 res[2] 0.00045585
2 *730:X 0.00045585
3 *707:A res[2] 0
*RES
1 *730:X res[2] 22.8536 
*END

*D_NET *25 0.000951893
*CONN
*P res[3] O
*I *731:X O *D sky130_fd_sc_hd__buf_2
*CAP
1 res[3] 0.000475946
2 *731:X 0.000475946
3 *708:A res[3] 0
*RES
1 *731:X res[3] 23.2643 
*END

*D_NET *26 0.000680799
*CONN
*P res[4] O
*I *732:X O *D sky130_fd_sc_hd__buf_2
*CAP
1 res[4] 0.000288621
2 *732:X 0.000288621
3 res[4] res[5] 5.44117e-05
4 res[4] res[6] 4.91447e-05
5 res[4] *693:B1 0
*RES
1 *732:X res[4] 19.6044 
*END

*D_NET *27 0.000771715
*CONN
*P res[5] O
*I *733:X O *D sky130_fd_sc_hd__buf_2
*CAP
1 res[5] 0.000358652
2 *733:X 0.000358652
3 res[5] *733:A 0
4 res[5] *90:12 0
5 res[4] res[5] 5.44117e-05
*RES
1 *733:X res[5] 20.8888 
*END

*D_NET *28 0.000973631
*CONN
*P res[6] O
*I *734:X O *D sky130_fd_sc_hd__buf_2
*CAP
1 res[6] 0.000435673
2 *734:X 0.000435673
3 res[6] z 2.25951e-05
4 res[6] *732:A 3.05446e-05
5 res[4] res[6] 4.91447e-05
*RES
1 *734:X res[6] 22.6018 
*END

*D_NET *29 0.000725543
*CONN
*P res[7] O
*I *735:X O *D sky130_fd_sc_hd__buf_2
*CAP
1 res[7] 0.000332587
2 *735:X 0.000332587
3 res[7] z 2.84302e-05
4 *710:A res[7] 3.19385e-05
*RES
1 *735:X res[7] 20.891 
*END

*D_NET *30 0.000761988
*CONN
*P z O
*I *736:X O *D sky130_fd_sc_hd__buf_2
*CAP
1 z 0.000355481
2 *736:X 0.000355481
3 z *635:A 0
4 res[6] z 2.25951e-05
5 res[7] z 2.84302e-05
*RES
1 *736:X z 21.1946 
*END

*D_NET *31 0.000557091
*CONN
*I *631:B1 I *D sky130_fd_sc_hd__o211a_1
*I *630:X O *D sky130_fd_sc_hd__or2_1
*CAP
1 *631:B1 0.000204217
2 *630:X 0.000204217
3 *631:B1 *631:A1 5.80706e-06
4 *631:B1 *664:B1 0
5 *631:B1 *664:C1 0
6 *631:B1 *130:48 0.00014285
7 *631:B1 *195:125 0
*RES
1 *630:X *631:B1 30.6 
*END

*D_NET *32 0.00244021
*CONN
*I *633:B1 I *D sky130_fd_sc_hd__a211o_1
*I *631:X O *D sky130_fd_sc_hd__o211a_1
*CAP
1 *633:B1 0.000808365
2 *631:X 0.000808365
3 *633:B1 *587:A 1.56e-05
4 *633:B1 *617:A1 3.42509e-05
5 *633:B1 *617:B1 7.06457e-05
6 *633:B1 *621:B1 5.33005e-05
7 *633:B1 *632:A1 6.81083e-05
8 *633:B1 *632:A3 2.19406e-05
9 *633:B1 *633:A1 1.78876e-05
10 *633:B1 *633:C1 0.000276981
11 *633:B1 *652:A1 0.000154912
12 *633:B1 *121:10 3.23658e-05
13 *633:B1 *127:39 3.66206e-05
14 *633:B1 *185:104 4.08637e-05
*RES
1 *631:X *633:B1 39.3679 
*END

*D_NET *33 0.00113109
*CONN
*I *633:C1 I *D sky130_fd_sc_hd__a211o_1
*I *632:X O *D sky130_fd_sc_hd__a31o_1
*CAP
1 *633:C1 0.000295125
2 *632:X 0.000295125
3 *633:C1 *587:A 2.84026e-05
4 *633:C1 *621:B1 0.000227013
5 *633:C1 *121:10 8.44271e-06
6 *633:C1 *193:35 0
7 *633:B1 *633:C1 0.000276981
*RES
1 *632:X *633:C1 33.2071 
*END

*D_NET *34 0.00118412
*CONN
*I *634:B1 I *D sky130_fd_sc_hd__a31o_1
*I *633:X O *D sky130_fd_sc_hd__a211o_1
*CAP
1 *634:B1 0.00044563
2 *633:X 0.00044563
3 *634:B1 *618:A3 0.000104283
4 *634:B1 *633:A2 6.05161e-06
5 *634:B1 *703:A 0.000125724
6 *634:B1 *138:16 5.68044e-05
*RES
1 *633:X *634:B1 33.8857 
*END

*D_NET *35 0.00134128
*CONN
*I *635:B I *D sky130_fd_sc_hd__and2_1
*I *693:A2_N I *D sky130_fd_sc_hd__o2bb2a_1
*I *634:X O *D sky130_fd_sc_hd__a31o_1
*CAP
1 *635:B 0
2 *693:A2_N 0.000373617
3 *634:X 0.000120228
4 *35:8 0.000493844
5 *693:A2_N *634:A1 0
6 *693:A2_N *635:A 0.000112106
7 *693:A2_N *693:A1_N 8.76456e-05
8 *693:A2_N *693:B1 2.72449e-05
9 *693:A2_N *699:A 6.17227e-05
10 *693:A2_N *734:A 9.25014e-06
11 *35:8 *634:A1 1.33343e-05
12 *35:8 *635:A 4.22908e-05
*RES
1 *634:X *35:8 11.4964 
2 *35:8 *693:A2_N 24.8357 
3 *35:8 *635:B 9.3 
*END

*D_NET *36 0.000426361
*CONN
*I *640:A I *D sky130_fd_sc_hd__or4_1
*I *636:X O *D sky130_fd_sc_hd__a22o_1
*CAP
1 *640:A 7.70407e-05
2 *636:X 7.70407e-05
3 *640:A *640:B 8.00806e-05
4 *640:A *640:C 2.49484e-05
5 *640:A *682:A1 9.25014e-06
6 *640:A *695:A 5.52238e-05
7 *640:A *183:61 0
8 *640:A *196:16 7.38748e-05
9 *640:A *198:8 2.89016e-05
*RES
1 *636:X *640:A 30.0821 
*END

*D_NET *37 0.000838556
*CONN
*I *640:B I *D sky130_fd_sc_hd__or4_1
*I *637:X O *D sky130_fd_sc_hd__and2_1
*CAP
1 *640:B 0.000163175
2 *637:X 0.000163175
3 *640:B *640:C 8.00806e-05
4 *640:B *661:B2 0.000171746
5 *640:B *661:C1 5.80706e-06
6 *640:B *114:110 5.75896e-05
7 *640:B *114:116 0
8 *640:B *141:36 0.00010096
9 *640:B *183:61 1.00375e-05
10 *640:B *196:16 5.90443e-06
11 *640:A *640:B 8.00806e-05
*RES
1 *637:X *640:B 32.6179 
*END

*D_NET *38 0.000265604
*CONN
*I *640:C I *D sky130_fd_sc_hd__or4_1
*I *638:X O *D sky130_fd_sc_hd__a221o_1
*CAP
1 *640:C 4.70175e-05
2 *638:X 4.70175e-05
3 *640:C *183:61 6.65398e-05
4 *640:A *640:C 2.49484e-05
5 *640:B *640:C 8.00806e-05
*RES
1 *638:X *640:C 29.2429 
*END

*D_NET *39 0.000542132
*CONN
*I *640:D I *D sky130_fd_sc_hd__or4_1
*I *639:X O *D sky130_fd_sc_hd__a22o_1
*CAP
1 *640:D 0.000216465
2 *639:X 0.000216465
3 *640:D *639:A2 6.05161e-06
4 *640:D *670:B1 6.57032e-05
5 *640:D *695:A 3.17016e-05
6 *640:D *198:8 5.74499e-06
*RES
1 *639:X *640:D 21.2071 
*END

*D_NET *40 0.00238721
*CONN
*I *641:C1 I *D sky130_fd_sc_hd__o211a_1
*I *640:X O *D sky130_fd_sc_hd__or4_1
*CAP
1 *641:C1 0.000622343
2 *640:X 0.000622343
3 *641:C1 *641:A2 5.71472e-05
4 *641:C1 *641:B1 5.71472e-05
5 *641:C1 *672:B 0.000375387
6 *641:C1 *673:C1 5.26184e-05
7 *641:C1 *682:A1 2.86754e-05
8 *641:C1 *682:A2 0.000378686
9 *641:C1 *695:A 9.90367e-05
10 *641:C1 *183:61 8.13899e-05
11 *641:C1 *185:57 0
12 *641:C1 *194:10 0
13 *641:C1 *194:25 0
14 *641:C1 *197:12 1.24368e-05
*RES
1 *640:X *641:C1 39.9214 
*END

*D_NET *41 0.000734935
*CONN
*I *646:A1 I *D sky130_fd_sc_hd__o32a_1
*I *641:X O *D sky130_fd_sc_hd__o211a_1
*CAP
1 *646:A1 0.000148535
2 *641:X 0.000148535
3 *646:A1 *646:A2 1.02504e-05
4 *646:A1 *157:34 0.000220455
5 *646:A1 *185:57 0
6 *646:A1 *194:10 7.83587e-05
7 *646:A1 *194:144 0.0001288
*RES
1 *641:X *646:A1 31.975 
*END

*D_NET *42 0.000355414
*CONN
*I *644:B I *D sky130_fd_sc_hd__and2b_1
*I *642:X O *D sky130_fd_sc_hd__a22o_1
*CAP
1 *644:B 7.00589e-05
2 *642:X 7.00589e-05
3 *644:B *642:A1 1.41231e-05
4 *644:B *679:B1 0.000125731
5 *644:B *102:12 4.25523e-05
6 res[0] *644:B 3.28897e-05
*RES
1 *642:X *644:B 29.85 
*END

*D_NET *43 0.000396004
*CONN
*I *644:A_N I *D sky130_fd_sc_hd__and2b_1
*I *643:X O *D sky130_fd_sc_hd__a41o_1
*CAP
1 *644:A_N 0.000120599
2 *643:X 0.000120599
3 *644:A_N *646:A2 3.18676e-05
4 *644:A_N *679:B1 5.71472e-05
5 *644:A_N *102:12 6.57914e-05
*RES
1 *643:X *644:A_N 21.1893 
*END

*D_NET *44 0.000955385
*CONN
*I *646:A2 I *D sky130_fd_sc_hd__o32a_1
*I *644:X O *D sky130_fd_sc_hd__and2b_1
*CAP
1 *646:A2 0.000237876
2 *644:X 0.000237876
3 *646:A2 *642:A1 0.000103267
4 *646:A2 *679:B1 1.39841e-05
5 *646:A2 *102:12 0
6 *646:A2 *157:34 5.84171e-05
7 *646:A2 *157:47 4.22559e-05
8 *646:A2 *194:144 0.000219592
9 *644:A_N *646:A2 3.18676e-05
10 *646:A1 *646:A2 1.02504e-05
*RES
1 *644:X *646:A2 32.6179 
*END

*D_NET *45 0.000440205
*CONN
*I *646:A3 I *D sky130_fd_sc_hd__o32a_1
*I *645:X O *D sky130_fd_sc_hd__a221o_1
*CAP
1 *646:A3 0.000148287
2 *645:X 0.000148287
3 *646:A3 *645:B2 3.36025e-05
4 *646:A3 *646:B1 0.000110029
*RES
1 *645:X *646:A3 21.2071 
*END

*D_NET *46 0.000370728
*CONN
*I *648:B1 I *D sky130_fd_sc_hd__o21a_1
*I *647:Y O *D sky130_fd_sc_hd__a21oi_1
*CAP
1 *648:B1 8.00016e-05
2 *647:Y 8.00016e-05
3 *648:B1 *647:A1 8.66313e-05
4 *648:B1 *647:B1 9.41642e-05
5 *648:B1 *648:A1 3.41517e-06
6 *648:B1 *107:12 2.65142e-05
*RES
1 *647:Y *648:B1 20.8143 
*END

*D_NET *47 0.000288264
*CONN
*I *656:A1 I *D sky130_fd_sc_hd__o32a_1
*I *648:X O *D sky130_fd_sc_hd__o21a_1
*CAP
1 *656:A1 4.9183e-05
2 *648:X 4.9183e-05
3 *656:A1 *656:A3 6.65398e-05
4 *656:A1 *94:25 0.000123359
*RES
1 *648:X *656:A1 29.2429 
*END

*D_NET *48 0.000523513
*CONN
*I *652:B1 I *D sky130_fd_sc_hd__a211o_1
*I *649:X O *D sky130_fd_sc_hd__a22o_1
*CAP
1 *652:B1 0.000147284
2 *649:X 0.000147284
3 *652:B1 *630:A 7.8327e-05
4 *652:B1 *652:C1 0.000150618
*RES
1 *649:X *652:B1 30.4929 
*END

*D_NET *49 0.00119701
*CONN
*I *651:C1 I *D sky130_fd_sc_hd__a221o_1
*I *650:X O *D sky130_fd_sc_hd__a22o_1
*CAP
1 *651:C1 0.000359529
2 *650:X 0.000359529
3 *651:C1 *616:A1 4.6025e-06
4 *651:C1 *627:A1 2.39654e-05
5 *651:C1 *627:B1 1.31516e-05
6 *651:C1 *627:B2 2.06112e-05
7 *651:C1 *114:52 0.00014699
8 *651:C1 *119:10 0
9 *651:C1 *140:80 7.84241e-05
10 *651:C1 *185:104 3.69697e-05
11 *651:C1 *195:81 0.000106358
12 *651:C1 *195:104 4.68779e-05
*RES
1 *650:X *651:C1 34.1536 
*END

*D_NET *50 0.00205646
*CONN
*I *652:C1 I *D sky130_fd_sc_hd__a211o_1
*I *651:X O *D sky130_fd_sc_hd__a221o_1
*CAP
1 *652:C1 0.000444903
2 *651:X 0.000444903
3 *652:C1 *617:B1 3.34366e-05
4 *652:C1 *617:C1 0.000176767
5 *652:C1 *629:A1 0.000115364
6 *652:C1 *629:B2 0.000149421
7 *652:C1 *629:C1 0.00015234
8 *652:C1 *630:A 7.49162e-06
9 *652:C1 *650:B1 7.444e-06
10 *652:C1 *178:29 1.11775e-05
11 *652:C1 *184:52 3.43988e-06
12 *652:C1 *184:63 1.03196e-05
13 *652:C1 *198:46 0.000348829
14 *652:B1 *652:C1 0.000150618
*RES
1 *651:X *652:C1 37.8143 
*END

*D_NET *51 0.000423178
*CONN
*I *653:C1 I *D sky130_fd_sc_hd__o211a_1
*I *652:X O *D sky130_fd_sc_hd__a211o_1
*CAP
1 *653:C1 0.000104458
2 *652:X 0.000104458
3 *653:C1 *599:B1 0.000122221
4 *653:C1 *127:39 5.71472e-05
5 *653:C1 *195:125 3.48938e-05
*RES
1 *652:X *653:C1 29.7786 
*END

*D_NET *52 0.0014999
*CONN
*I *656:A2 I *D sky130_fd_sc_hd__o32a_1
*I *653:X O *D sky130_fd_sc_hd__o211a_1
*CAP
1 *656:A2 0.000622296
2 *653:X 0.000622296
3 *656:A2 *656:B1 0
4 *656:A2 *116:25 2.72967e-05
5 *656:A2 *130:48 2.28455e-05
6 *656:A2 *180:29 0
7 *656:A2 *193:27 3.13656e-05
8 *656:A2 *195:133 0
9 *656:A2 *196:108 0.000173797
*RES
1 *653:X *656:A2 37.2071 
*END

*D_NET *53 0.000336673
*CONN
*I *655:B1 I *D sky130_fd_sc_hd__a21o_1
*I *654:X O *D sky130_fd_sc_hd__a31o_1
*CAP
1 *655:B1 7.28657e-05
2 *654:X 7.28657e-05
3 *655:B1 *654:A1 0
4 *655:B1 *655:A1 9.14577e-05
5 *655:B1 *95:40 9.83388e-05
6 *655:B1 *180:87 1.14516e-06
*RES
1 *654:X *655:B1 20.8411 
*END

*D_NET *54 0.00108945
*CONN
*I *656:A3 I *D sky130_fd_sc_hd__o32a_1
*I *655:X O *D sky130_fd_sc_hd__a21o_1
*CAP
1 *656:A3 0.000330505
2 *655:X 0.000330505
3 *656:A3 *579:A1 1.24368e-05
4 *656:A3 *656:B1 3.4846e-06
5 *656:A3 *94:25 7.06667e-06
6 *656:A3 *95:27 0
7 *656:A3 *95:40 0.000172687
8 *656:A3 *110:14 0.000147132
9 *656:A3 *110:22 1.90936e-05
10 *656:A1 *656:A3 6.65398e-05
*RES
1 *655:X *656:A3 33.4393 
*END

*D_NET *55 0.000837634
*CONN
*I *659:A I *D sky130_fd_sc_hd__nor2_1
*I *657:Y O *D sky130_fd_sc_hd__a21oi_1
*CAP
1 *659:A 0.000252773
2 *657:Y 0.000252773
3 *659:A *578:A2 1.24368e-05
4 *659:A *689:A2 3.2534e-05
5 *659:A *689:A3 1.99099e-05
6 *659:A *689:B1 9.22103e-06
7 *659:A *690:B1_N 3.69697e-05
8 *659:A *730:A 4.02462e-05
9 *659:A *190:20 0.00018077
*RES
1 *657:Y *659:A 31.725 
*END

*D_NET *56 0.000147873
*CONN
*I *659:B I *D sky130_fd_sc_hd__nor2_1
*I *658:X O *D sky130_fd_sc_hd__a31o_1
*CAP
1 *659:B 4.22348e-05
2 *658:X 4.22348e-05
3 *659:B *658:A2 5.7661e-06
4 *659:B *667:A1 3.17016e-05
5 *659:B *180:101 2.59355e-05
*RES
1 *658:X *659:B 19.5643 
*END

*D_NET *57 0.00159455
*CONN
*I *667:A1 I *D sky130_fd_sc_hd__o32a_1
*I *659:Y O *D sky130_fd_sc_hd__nor2_1
*CAP
1 *667:A1 0.000534447
2 *659:Y 0.000534447
3 *667:A1 *578:B1 2.49484e-05
4 *667:A1 *658:A2 0.00018927
5 *667:A1 *667:A2 3.34366e-05
6 *667:A1 *667:A3 4.58194e-05
7 *667:A1 *667:B2 2.59355e-05
8 *667:A1 *691:A 9.25014e-06
9 *667:A1 *731:A 8.08022e-05
10 *667:A1 *171:8 5.52302e-05
11 *667:A1 *180:101 2.92597e-05
12 *659:B *667:A1 3.17016e-05
*RES
1 *659:Y *667:A1 35.4929 
*END

*D_NET *58 0.00121388
*CONN
*I *661:C1 I *D sky130_fd_sc_hd__a221o_1
*I *660:X O *D sky130_fd_sc_hd__a22o_1
*CAP
1 *661:C1 0.000389044
2 *660:X 0.000389044
3 *661:C1 *660:A1 0
4 *661:C1 *114:110 7.90803e-05
5 *661:C1 *140:27 0.000167185
6 *661:C1 *182:57 0
7 *661:C1 *195:10 0.00018372
8 *640:B *661:C1 5.80706e-06
*RES
1 *660:X *661:C1 33.7786 
*END

*D_NET *59 0.000649235
*CONN
*I *663:B1 I *D sky130_fd_sc_hd__a211o_1
*I *661:X O *D sky130_fd_sc_hd__a221o_1
*CAP
1 *663:B1 0.000152503
2 *661:X 0.000152503
3 *663:B1 *662:A1 2.42516e-05
4 *663:B1 *663:A1 1.04232e-05
5 *663:B1 *115:61 0.000178847
6 *663:B1 *183:55 9.81828e-05
7 *663:B1 *195:19 2.56601e-05
8 *663:B1 *195:54 6.8646e-06
*RES
1 *661:X *663:B1 31.1357 
*END

*D_NET *60 0.000579032
*CONN
*I *663:C1 I *D sky130_fd_sc_hd__a211o_1
*I *662:X O *D sky130_fd_sc_hd__a221o_1
*CAP
1 *663:C1 0.000116355
2 *662:X 0.000116355
3 *663:C1 *661:A2 9.80173e-05
4 *663:C1 *662:A1 0.00012501
5 *663:C1 *183:55 0.000123295
*RES
1 *662:X *663:C1 30.1893 
*END

*D_NET *61 0.00352581
*CONN
*I *664:C1 I *D sky130_fd_sc_hd__o211a_1
*I *663:X O *D sky130_fd_sc_hd__a211o_1
*CAP
1 *664:C1 0.000862588
2 *663:X 0.000862588
3 *664:C1 *596:A1 0.000671427
4 *664:C1 *616:A1 2.06178e-05
5 *664:C1 *631:A1 0
6 *664:C1 *660:B2 0.000196968
7 *664:C1 *664:B1 0.000344932
8 *664:C1 *676:A2 0
9 *664:C1 *676:B1 0
10 *664:C1 *114:52 0
11 *664:C1 *185:104 0
12 *664:C1 *186:76 0.00013906
13 *664:C1 *190:34 6.88463e-06
14 *664:C1 *195:81 0.00023083
15 *664:C1 *195:104 0.000189915
16 *631:B1 *664:C1 0
*RES
1 *663:X *664:C1 47.5286 
*END

*D_NET *62 0.00160341
*CONN