*SPEF "ieee 1481-1999"
*DESIGN "barrelShifter"
*DATE "00:55:35 Saturday May 16, 2026"
*VENDOR "The OpenROAD Project"
*PROGRAM "OpenROAD"
*VERSION "v2.0-16235-gedf00dff9"
*DESIGN_FLOW "NAME_SCOPE LOCAL" "PIN_CAP NONE"
*DIVIDER /
*DELIMITER :
*BUS_DELIMITER []
*T_UNIT 1 NS
*C_UNIT 1 PF
*R_UNIT 1 OHM
*L_UNIT 1 HENRY

*NAME_MAP
*3 amt[0]
*4 amt[1]
*5 amt[2]
*6 data[0]
*7 data[1]
*8 data[2]
*9 data[3]
*10 data[4]
*11 data[5]
*12 data[6]
*13 data[7]
*14 result[0]
*15 result[1]
*16 result[2]
*17 result[3]
*18 result[4]
*19 result[5]
*20 result[6]
*21 result[7]
*22 _000_
*23 _001_
*24 _002_
*25 _003_
*26 _004_
*27 _005_
*28 _006_
*29 _007_
*30 _008_
*31 _009_
*32 _010_
*33 _011_
*34 _012_
*35 _013_
*36 _014_
*37 _015_
*38 _016_
*39 _017_
*40 _018_
*41 _019_
*42 _020_
*43 _021_
*44 _022_
*45 _023_
*46 _024_
*47 _025_
*48 _026_
*49 _027_
*50 _028_
*51 _029_
*52 _030_
*53 _031_
*54 _032_
*55 _033_
*56 _034_
*57 _035_
*58 _036_
*59 _037_
*60 _038_
*61 _039_
*62 _040_
*63 _041_
*64 _042_
*65 _043_
*66 _044_
*67 _045_
*68 _046_
*69 _047_
*70 _048_
*71 _049_
*72 _050_
*73 _051_
*74 _052_
*75 _053_
*76 _054_
*77 _055_
*78 net1
*79 net10
*80 net11
*81 net12
*82 net13
*83 net14
*84 net15
*85 net16
*86 net17
*87 net18
*88 net19
*89 net2
*90 net20
*91 net21
*92 net22
*93 net23
*94 net24
*95 net25
*96 net26
*97 net27
*98 net28
*99 net29
*100 net3
*101 net30
*102 net31
*103 net32
*104 net33
*105 net34
*106 net4
*107 net5
*108 net6
*109 net7
*110 net8
*111 net9
*112 FILLER_0_23
*113 FILLER_0_29
*114 FILLER_0_3
*115 FILLER_0_35
*116 FILLER_0_57
*117 FILLER_0_60
*118 FILLER_0_63
*119 FILLER_0_71
*120 FILLER_0_74
*121 FILLER_0_77
*122 FILLER_10_15
*123 FILLER_10_26
*124 FILLER_10_41
*125 FILLER_10_44
*126 FILLER_10_51
*127 FILLER_10_54
*128 FILLER_10_57
*129 FILLER_10_75
*130 FILLER_11_11
*131 FILLER_11_25
*132 FILLER_11_52
*133 FILLER_11_55
*134 FILLER_11_57
*135 FILLER_11_60
*136 FILLER_11_63
*137 FILLER_11_66
*138 FILLER_11_69
*139 FILLER_11_7
*140 FILLER_11_72
*141 FILLER_11_75
*142 FILLER_12_12
*143 FILLER_12_15
*144 FILLER_12_18
*145 FILLER_12_21
*146 FILLER_12_24
*147 FILLER_12_27
*148 FILLER_12_29
*149 FILLER_12_32
*150 FILLER_12_35
*151 FILLER_12_38
*152 FILLER_12_41
*153 FILLER_12_44
*154 FILLER_12_47
*155 FILLER_12_50
*156 FILLER_12_53
*157 FILLER_12_57
*158 FILLER_12_6
*159 FILLER_12_60
*160 FILLER_12_63
*161 FILLER_12_66
*162 FILLER_12_69
*163 FILLER_12_72
*164 FILLER_12_75
*165 FILLER_12_9
*166 FILLER_1_3
*167 FILLER_1_39
*168 FILLER_1_54
*169 FILLER_1_75
*170 FILLER_2_44
*171 FILLER_3_11
*172 FILLER_3_20
*173 FILLER_3_23
*174 FILLER_3_26
*175 FILLER_3_35
*176 FILLER_3_38
*177 FILLER_3_57
*178 FILLER_3_60
*179 FILLER_3_76
*180 FILLER_4_18
*181 FILLER_4_29
*182 FILLER_4_32
*183 FILLER_4_35
*184 FILLER_4_60
*185 FILLER_4_7
*186 FILLER_4_73
*187 FILLER_5_18
*188 FILLER_5_21
*189 FILLER_5_24
*190 FILLER_5_3
*191 FILLER_5_32
*192 FILLER_5_35
*193 FILLER_5_38
*194 FILLER_5_51
*195 FILLER_5_54
*196 FILLER_5_57
*197 FILLER_5_60
*198 FILLER_5_72
*199 FILLER_6_13
*200 FILLER_6_23
*201 FILLER_6_26
*202 FILLER_6_36
*203 FILLER_6_39
*204 FILLER_6_46
*205 FILLER_6_49
*206 FILLER_6_52
*207 FILLER_6_7
*208 FILLER_7_39
*209 FILLER_7_57
*210 FILLER_7_60
*211 FILLER_7_63
*212 FILLER_7_66
*213 FILLER_7_69
*214 FILLER_7_72
*215 FILLER_8_10
*216 FILLER_8_13
*217 FILLER_8_16
*218 FILLER_8_19
*219 FILLER_8_22
*220 FILLER_8_25
*221 FILLER_8_29
*222 FILLER_8_37
*223 FILLER_8_40
*224 FILLER_8_48
*225 FILLER_8_64
*226 FILLER_8_76
*227 FILLER_9_23
*228 FILLER_9_26
*229 FILLER_9_29
*230 FILLER_9_3
*231 FILLER_9_38
*232 FILLER_9_41
*233 FILLER_9_44
*234 FILLER_9_47
*235 FILLER_9_54
*236 FILLER_9_77
*237 PHY_EDGE_ROW_0_Left_13
*238 PHY_EDGE_ROW_0_Right_0
*239 PHY_EDGE_ROW_10_Left_23
*240 PHY_EDGE_ROW_10_Right_10
*241 PHY_EDGE_ROW_11_Left_24
*242 PHY_EDGE_ROW_11_Right_11
*243 PHY_EDGE_ROW_12_Left_25
*244 PHY_EDGE_ROW_12_Right_12
*245 PHY_EDGE_ROW_1_Left_14
*246 PHY_EDGE_ROW_1_Right_1
*247 PHY_EDGE_ROW_2_Left_15
*248 PHY_EDGE_ROW_2_Right_2
*249 PHY_EDGE_ROW_3_Left_16
*250 PHY_EDGE_ROW_3_Right_3
*251 PHY_EDGE_ROW_4_Left_17
*252 PHY_EDGE_ROW_4_Right_4
*253 PHY_EDGE_ROW_5_Left_18
*254 PHY_EDGE_ROW_5_Right_5
*255 PHY_EDGE_ROW_6_Left_19
*256 PHY_EDGE_ROW_6_Right_6
*257 PHY_EDGE_ROW_7_Left_20
*258 PHY_EDGE_ROW_7_Right_7
*259 PHY_EDGE_ROW_8_Left_21
*260 PHY_EDGE_ROW_8_Right_8
*261 PHY_EDGE_ROW_9_Left_22
*262 PHY_EDGE_ROW_9_Right_9
*263 TAP_TAPCELL_ROW_0_26
*264 TAP_TAPCELL_ROW_0_27
*265 TAP_TAPCELL_ROW_10_37
*266 TAP_TAPCELL_ROW_11_38
*267 TAP_TAPCELL_ROW_12_39
*268 TAP_TAPCELL_ROW_12_40
*269 TAP_TAPCELL_ROW_1_28
*270 TAP_TAPCELL_ROW_2_29
*271 TAP_TAPCELL_ROW_3_30
*272 TAP_TAPCELL_ROW_4_31
*273 TAP_TAPCELL_ROW_5_32
*274 TAP_TAPCELL_ROW_6_33
*275 TAP_TAPCELL_ROW_7_34
*276 TAP_TAPCELL_ROW_8_35
*277 TAP_TAPCELL_ROW_9_36
*278 _056_
*279 _057_
*280 _058_
*281 _059_
*282 _060_
*283 _061_
*284 _062_
*285 _063_
*286 _064_
*287 _065_
*288 _066_
*289 _067_
*290 _068_
*291 _069_
*292 _070_
*293 _071_
*294 _072_
*295 _073_
*296 _074_
*297 _075_
*298 _076_
*299 _077_
*300 _078_
*301 _079_
*302 _080_
*303 _081_
*304 _082_
*305 _083_
*306 _084_
*307 _085_
*308 _086_
*309 _087_
*310 _088_
*311 _089_
*312 _090_
*313 _091_
*314 _092_
*315 _093_
*316 _094_
*317 _095_
*318 _096_
*319 _097_
*320 _098_
*321 _099_
*322 _100_
*323 _101_
*324 _102_
*325 _103_
*326 _104_
*327 _105_
*328 _106_
*329 _107_
*330 _108_
*331 _109_
*332 _110_
*333 _111_
*334 _112_
*335 _113_
*336 _114_
*337 _115_
*338 _116_
*339 _117_
*340 _118_
*341 _119_
*342 fanout22
*343 fanout23
*344 fanout24
*345 fanout25
*346 fanout26
*347 fanout27
*348 fanout28
*349 fanout29
*350 fanout30
*351 fanout31
*352 fanout32
*353 fanout33
*354 fanout34
*355 input1
*356 input10
*357 input11
*358 input2
*359 input3
*360 input4
*361 input5
*362 input6
*363 input7
*364 input8
*365 input9
*366 max_cap20
*367 max_cap21
*368 output12
*369 output13
*370 output14
*371 output15
*372 output16
*373 output17
*374 output18
*375 output19

*PORTS
amt[0] I
amt[1] I
amt[2] I
data[0] I
data[1] I
data[2] I
data[3] I
data[4] I
data[5] I
data[6] I
data[7] I
result[0] O
result[1] O
result[2] O
result[3] O
result[4] O
result[5] O
result[6] O
result[7] O

*D_NET *3 0.000612169
*CONN
*P amt[0] I
*I *355:A I *D sky130_fd_sc_hd__buf_1
*CAP
1 amt[0] 0.000294787
2 *355:A 0.000294787
3 *355:A *361:A 2.25951e-05
*RES
1 amt[0] *355:A 20.7838 
*END

*D_NET *4 0.00163598
*CONN
*P amt[1] I
*I *358:A I *D sky130_fd_sc_hd__clkbuf_1
*CAP
1 amt[1] 0.000764976
2 *358:A 0.000764976
3 *358:A *315:C 0
4 *358:A *359:A 7.60209e-05
5 *358:A *360:A 3.00113e-05
*RES
1 amt[1] *358:A 20.5623 
*END

*D_NET *5 0.00187654
*CONN
*P amt[2] I
*I *359:A I *D sky130_fd_sc_hd__buf_1
*CAP
1 amt[2] 0.000433164
2 *359:A 0.000433164
3 *359:A *315:A_N 0.000112659
4 *359:A *362:A 0.000591054
5 *359:A *108:8 0.000230482
6 *358:A *359:A 7.60209e-05
*RES
1 amt[2] *359:A 25.9794 
*END

*D_NET *6 0.000877368
*CONN
*P data[0] I
*I *360:A I *D sky130_fd_sc_hd__clkbuf_2
*CAP
1 data[0] 0.00041003
2 *360:A 0.00041003
3 *360:A result[1] 0
4 *360:A *350:A 2.72967e-05
5 *358:A *360:A 3.00113e-05
*RES
1 data[0] *360:A 21.9429 
*END

*D_NET *7 0.000598113
*CONN
*P data[1] I
*I *361:A I *D sky130_fd_sc_hd__clkbuf_2
*CAP
1 data[1] 0.000273375
2 *361:A 0.000273375
3 *361:A result[7] 0
4 *361:A *351:A 0
5 *361:A *357:A 2.87684e-05
6 *355:A *361:A 2.25951e-05
*RES
1 data[1] *361:A 19.1056 
*END

*D_NET *8 0.0020804
*CONN
*P data[2] I
*I *362:A I *D sky130_fd_sc_hd__clkbuf_2
*CAP
1 data[2] 0.000570294
2 *362:A 0.000570294
3 *362:A result[4] 4.68796e-05
4 *362:A *315:A_N 7.06246e-05
5 *362:A *315:B 5.97284e-05
6 *362:A *315:C 6.36904e-05
7 *362:A *315:D 2.3541e-05
8 *362:A *102:18 3.43988e-06
9 *362:A *102:20 5.16596e-05
10 *362:A *102:22 2.91931e-05
11 *359:A *362:A 0.000591054
*RES
1 data[2] *362:A 28.8537 
*END

*D_NET *9 0.000532883
*CONN
*P data[3] I
*I *363:A I *D sky130_fd_sc_hd__clkbuf_2
*CAP
1 data[3] 0.000203798
2 *363:A 0.000203798
3 *363:A result[2] 0.000102589
4 *363:A *295:A1 2.26973e-05
*RES
1 data[3] *363:A 18.267 
*END

*D_NET *10 0.000714352
*CONN
*P data[4] I
*I *364:A I *D sky130_fd_sc_hd__clkbuf_2
*CAP
1 data[4] 0.000300233
2 *364:A 0.000300233
3 *364:A result[4] 3.19385e-05
4 *364:A result[5] 2.25951e-05
5 *364:A *96:50 5.33005e-05
6 *364:A *96:63 0
7 *364:A *102:84 6.05161e-06
*RES
1 data[4] *364:A 21.1946 
*END

*D_NET *11 0.000694901
*CONN
*P data[5] I
*I *365:A I *D sky130_fd_sc_hd__clkbuf_2
*CAP
1 data[5] 0.000226737
2 *365:A 0.000226737
3 *365:A result[0] 0.000102589
4 *365:A *356:A 9.31735e-05
5 *365:A *99:36 4.56642e-05
*RES
1 data[5] *365:A 19.1777 
*END

*D_NET *12 0.000588955
*CONN
*P data[6] I
*I *356:A I *D sky130_fd_sc_hd__clkbuf_2
*CAP
1 data[6] 0.000185596
2 *356:A 0.000185596
3 *356:A result[3] 8.57347e-05
4 *356:A *311:A3 3.34366e-05
5 *356:A *99:62 5.41797e-06
6 *365:A *356:A 9.31735e-05
*RES
1 data[6] *356:A 18.5706 
*END

*D_NET *13 0.0006787
*CONN
*P data[7] I
*I *357:A I *D sky130_fd_sc_hd__clkbuf_2
*CAP
1 data[7] 0.000313668
2 *357:A 0.000313668
3 *357:A result[7] 2.25951e-05
4 *361:A *357:A 2.87684e-05
*RES
1 data[7] *357:A 21.1946 
*END

*D_NET *14 0.000524525
*CONN
*P result[0] O
*I *368:X O *D sky130_fd_sc_hd__buf_2
*CAP
1 result[0] 0.000152294
2 *368:X 0.000152294
3 result[0] result[2] 0.000105162
4 result[0] *99:36 1.21859e-05
5 *365:A result[0] 0.000102589
*RES
1 *368:X result[0] 18.267 
*END

*D_NET *15 0.000876297
*CONN
*P result[1] O
*I *369:X O *D sky130_fd_sc_hd__buf_2
*CAP
1 result[1] 0.000438148
2 *369:X 0.000438148
3 *360:A result[1] 0
*RES
1 *369:X result[1] 21.6393 
*END

*D_NET *16 0.00170548
*CONN
*P result[2] O
*I *370:X O *D sky130_fd_sc_hd__buf_2
*CAP
1 result[2] 0.000660541
2 *370:X 0.000660541
3 result[2] *287:B 5.92267e-05
4 result[2] *104:57 0.000117421
5 result[0] result[2] 0.000105162
6 *363:A result[2] 0.000102589
*RES
1 *370:X result[2] 20.4181 
*END

*D_NET *17 0.00210274
*CONN
*P result[3] O
*I *371:X O *D sky130_fd_sc_hd__buf_2
*CAP
1 result[3] 0.000780084
2 *371:X 0.000780084
3 result[3] *307:B1 1.56e-05
4 result[3] *309:C 0.000237326
5 result[3] *309:D 2.14658e-05
6 result[3] *310:A 0
7 result[3] *310:C 2.89016e-05
8 result[3] *310:D 3.18676e-05
9 result[3] *311:A3 9.27737e-05
10 result[3] *80:22 2.89016e-05
11 *356:A result[3] 8.57347e-05
*RES
1 *371:X result[3] 28.1229 
*END

*D_NET *18 0.000841818
*CONN
*P result[4] O
*I *372:X O *D sky130_fd_sc_hd__buf_2
*CAP
1 result[4] 0.000380243
2 *372:X 0.000380243
3 result[4] result[5] 0
4 result[4] *329:B_N 2.51343e-06
5 result[4] *102:16 0
6 result[4] *102:18 0
7 *362:A result[4] 4.68796e-05
8 *364:A result[4] 3.19385e-05
*RES
1 *372:X result[4] 21.8346 
*END

*D_NET *19 0.00199145
*CONN
*P result[5] O
*I *373:X O *D sky130_fd_sc_hd__buf_2
*CAP
1 result[5] 0.000930809
2 *373:X 0.000930809
3 result[5] result[6] 5.44117e-05
4 result[5] *326:A2 2.06178e-05
5 result[5] *334:B2 1.15918e-05
6 result[5] *100:54 2.06178e-05
7 result[4] result[5] 0
8 *364:A result[5] 2.25951e-05
*RES
1 *373:X result[5] 19.4201 
*END

*D_NET *20 0.000793719
*CONN
*P result[6] O
*I *374:X O *D sky130_fd_sc_hd__buf_2
*CAP
1 result[6] 0.000324188
2 *374:X 0.000324188
3 result[6] result[7] 5.40137e-05
4 result[6] *283:A_N 3.69178e-05
5 result[5] result[6] 5.44117e-05
*RES
1 *374:X result[6] 20.8888 
*END

*D_NET *21 0.000877695
*CONN
*P result[7] O
*I *375:X O *D sky130_fd_sc_hd__buf_2
*CAP
1 result[7] 0.000327653
2 *375:X 0.000327653
3 result[7] *283:A_N 0.000128154
4 result[7] *102:12 1.76266e-05
5 result[6] result[7] 5.40137e-05
6 *357:A result[7] 2.25951e-05
7 *361:A result[7] 0
*RES
1 *375:X result[7] 20.8186 
*END

*D_NET *22 0.0101432
*CONN
*I *318:A2 I *D sky130_fd_sc_hd__o22a_1
*I *326:B1 I *D sky130_fd_sc_hd__o32a_1
*I *334:B1 I *D sky130_fd_sc_hd__o32a_1
*I *341:A2 I *D sky130_fd_sc_hd__o22a_1
*I *311:B1 I *D sky130_fd_sc_hd__o32a_1
*I *289:A2 I *D sky130_fd_sc_hd__o22a_1
*I *303:A2 I *D sky130_fd_sc_hd__o22a_1
*I *296:A2 I *D sky130_fd_sc_hd__o22a_1
*I *278:Y O *D sky130_fd_sc_hd__nand3_4
*CAP
1 *318:A2 0.000569049
2 *326:B1 0.000349233
3 *334:B1 1.05286e-05
4 *341:A2 0
5 *311:B1 0
6 *289:A2 0.000274473
7 *303:A2 7.38116e-05
8 *296:A2 0.000327114
9 *278:Y 3.31081e-05
10 *22:73 0.000417224
11 *22:69 0.000968509
12 *22:56 0.000630068
13 *22:14 0.000661618
14 *22:12 0.000605359
15 *22:10 0.000157033
16 *22:6 0.000408018
17 *289:A2 *80:70 1.58163e-05
18 *289:A2 *80:72 4.70078e-05
19 *289:A2 *91:32 9.46929e-05
20 *296:A2 *296:A1 5.65955e-05
21 *296:A2 *303:B1 0
22 *296:A2 *94:29 0.000144038
23 *296:A2 *94:44 3.34366e-05
24 *296:A2 *95:29 0
25 *296:A2 *98:16 5.3792e-05
26 *303:A2 *303:A1 6.46481e-05
27 *303:A2 *303:B2 1.97695e-05
28 *303:A2 *90:6 1.74352e-05
29 *318:A2 *294:A2 4.25523e-05
30 *318:A2 *318:B1 0.000315158
31 *318:A2 *334:A3 0.000287481
32 *318:A2 *335:A_N 2.51885e-05
33 *318:A2 *335:D 4.1331e-06
34 *318:A2 *79:76 0
35 *318:A2 *91:38 2.23987e-05
36 *318:A2 *91:40 0.000125514
37 *318:A2 *100:54 7.96629e-05
38 *318:A2 *107:33 0.000136744
39 *318:A2 *108:42 0.000128161
40 *318:A2 *111:50 0.00031397
41 *326:B1 *326:A2 2.84343e-05
42 *326:B1 *334:A1 4.58194e-05
43 *326:B1 *334:A3 2.99966e-05
44 *334:B1 *334:A1 8.84859e-06
45 *22:6 *311:A1 9.90431e-05
46 *22:10 *305:A2 0.000138946
47 *22:10 *91:8 0
48 *22:12 *305:A2 9.25014e-06
49 *22:12 *338:A2 1.08359e-05
50 *22:12 *91:8 0
51 *22:12 *108:93 0.00012401
52 *22:12 *110:85 2.84749e-05
53 *22:14 *301:A1 9.071e-05
54 *22:14 *303:B1 0
55 *22:14 *94:44 0.000346823
56 *22:14 *95:29 0
57 *22:14 *104:12 5.41797e-05
58 *22:14 *108:93 0.000371608
59 *22:14 *110:85 3.35113e-05
60 *22:56 *304:A 0.000290854
61 *22:56 *304:B 5.65739e-05
62 *22:56 *311:A1 1.21258e-05
63 *22:56 *341:A1 5.65955e-05
64 *22:56 *95:38 0
65 *22:69 *321:C 0.000222666
66 *22:69 *335:A_N 0.000197991
67 *22:69 *335:B 8.9163e-05
68 *22:69 *335:D 0
69 *22:69 *341:A1 0.000250151
70 *22:73 *334:A3 3.32631e-05
*RES
1 *278:Y *22:6 10.2464 
2 *22:6 *22:10 6.44643 
3 *22:10 *22:12 1.94643 
4 *22:12 *22:14 7.71429 
5 *22:14 *296:A2 18.6393 
6 *22:14 *303:A2 15.4786 
7 *22:12 *289:A2 17.2107 
8 *22:10 *311:B1 13.8 
9 *22:6 *22:56 6.19643 
10 *22:56 *341:A2 9.3 
11 *22:56 *22:69 12.125 
12 *22:69 *22:73 5.44643 
13 *22:73 *334:B1 9.57679 
14 *22:73 *326:B1 13.8714 
15 *22:69 *318:A2 28.3893 
*END

*D_NET *23 0.00225803
*CONN
*I *367:A I *D sky130_fd_sc_hd__clkbuf_2
*I *305:A2 I *D sky130_fd_sc_hd__a22o_1
*I *340:A2 I *D sky130_fd_sc_hd__a2111o_1
*I *279:Y O *D sky130_fd_sc_hd__nor3_1
*CAP
1 *367:A 8.83769e-05
2 *305:A2 0.000209145
3 *340:A2 0.000316658
4 *279:Y 0
5 *23:17 0.000368321
6 *23:4 0.000387456
7 *305:A2 *305:A1 1.32056e-05
8 *305:A2 *338:A2 0.000468277
9 *305:A2 *91:8 0
10 *305:A2 *105:25 0
11 *305:A2 *109:49 8.2607e-05
12 *305:A2 *110:85 1.32056e-05
13 *340:A2 *279:C 1.24368e-05
14 *340:A2 *337:D 4.85049e-06
15 *367:A *80:22 0.000102207
16 *23:17 *337:C 4.30904e-05
17 *23:17 *105:25 0
18 *22:10 *305:A2 0.000138946
19 *22:12 *305:A2 9.25014e-06
*RES
1 *279:Y *23:4 9.3 
2 *23:4 *340:A2 13.0321 
3 *23:4 *23:17 5.83929 
4 *23:17 *305:A2 20.0321 
5 *23:17 *367:A 15.5679 
*END

*D_NET *24 0.00876226
*CONN
*I *282:B1 I *D sky130_fd_sc_hd__a221o_1
*I *301:B1 I *D sky130_fd_sc_hd__a221o_1
*I *295:A2 I *D sky130_fd_sc_hd__a2111o_1
*I *320:B1 I *D sky130_fd_sc_hd__a22o_1
*I *317:A2 I *D sky130_fd_sc_hd__a2111o_1
*I *280:Y O *D sky130_fd_sc_hd__nor3b_2
*CAP
1 *282:B1 0.000167698
2 *301:B1 4.12815e-05
3 *295:A2 0
4 *320:B1 0.000382339
5 *317:A2 0.000341341
6 *280:Y 3.58313e-05
7 *24:61 0.000435402
8 *24:22 0.0013602
9 *24:12 0.000905158
10 *24:6 0.000530892
11 *282:B1 *282:A1 2.52871e-05
12 *282:B1 *282:A2 0.000117552
13 *282:B1 *301:A1 3.36817e-05
14 *282:B1 *301:A2 7.71367e-05
15 *282:B1 *301:B2 0.000432883
16 *282:B1 *105:29 4.62903e-05
17 *282:B1 *111:12 5.55405e-05
18 *317:A2 *290:D 1.98839e-05
19 *317:A2 *350:A 2.11784e-05
20 *317:A2 *92:104 9.71197e-05
21 *317:A2 *100:10 1.83776e-05
22 *317:A2 *100:27 2.05484e-05
23 *317:A2 *102:41 0.00035772
24 *320:B1 *294:B2 0.000454818
25 *320:B1 *294:C1 7.55747e-05
26 *320:B1 *314:A2 2.59355e-05
27 *320:B1 *316:B2 7.15687e-05
28 *320:B1 *317:A1 0.000126999
29 *320:B1 *369:A 0
30 *320:B1 *79:63 0.000697297
31 *320:B1 *98:78 0
32 *320:B1 *101:39 0.000107263
33 *320:B1 *111:44 2.59355e-05
34 *24:6 *79:34 4.38128e-05
35 *24:12 *295:D1 1.07561e-05
36 *24:12 *345:A 1.02504e-05
37 *24:12 *349:A 1.10632e-05
38 *24:12 *79:34 0.000356028
39 *24:12 *95:23 1.46624e-05
40 *24:22 *290:A_N 4.03264e-05
41 *24:22 *290:C 1.91312e-05
42 *24:22 *290:D 7.00765e-05
43 *24:22 *295:A1 9.60875e-05
44 *24:22 *295:D1 4.48318e-05
45 *24:22 *345:A 4.28365e-05
46 *24:22 *349:A 5.20298e-05
47 *24:22 *79:34 6.80902e-05
48 *24:22 *95:23 2.30116e-06
49 *24:61 *299:A2 7.83587e-05
50 *24:61 *104:61 0
51 *24:61 *105:29 0.000357672
52 *24:61 *105:41 5.59013e-05
53 *24:61 *111:12 0.000279314
*RES
1 *280:Y *24:6 9.83571 
2 *24:6 *24:12 8.64286 
3 *24:12 *24:22 13.7143 
4 *24:22 *317:A2 23.6929 
5 *24:22 *320:B1 29.5857 
6 *24:12 *295:A2 13.8 
7 *24:6 *24:61 10.6964 
8 *24:61 *301:B1 14.7464 
9 *24:61 *282:B1 19.1929 
*END

*D_NET *25 0.000759138
*CONN
*I *282:C1 I *D sky130_fd_sc_hd__a221o_1
*I *281:X O *D sky130_fd_sc_hd__and4bb_1
*CAP
1 *282:C1 0.000167154
2 *281:X 0.000167154
3 *282:C1 *297:D 0.000141693
4 *282:C1 *104:18 0.000137561
5 *282:C1 *110:51 5.67572e-05
6 *282:C1 *110:66 8.88193e-05
*RES
1 *281:X *282:C1 30.9036 
*END

*D_NET *26 0.0016392
*CONN
*I *289:B1 I *D sky130_fd_sc_hd__o22a_1
*I *282:X O *D sky130_fd_sc_hd__a221o_1
*CAP
1 *289:B1 0.000397626
2 *282:X 0.000397626
3 *289:B1 *301:B2 0.000309266
4 *289:B1 *80:26 4.66511e-05
5 *289:B1 *80:36 0.000266099
6 *289:B1 *105:27 9.69119e-06
7 *289:B1 *105:29 3.84385e-05
8 *289:B1 *111:12 0.000173804
*RES
1 *282:X *289:B1 35.0821 
*END

*D_NET *27 0.00455189
*CONN
*I *304:B I *D sky130_fd_sc_hd__and2_1
*I *336:A2 I *D sky130_fd_sc_hd__a221o_1
*I *327:B I *D sky130_fd_sc_hd__and2_1
*I *319:B I *D sky130_fd_sc_hd__and2_1
*I *283:X O *D sky130_fd_sc_hd__and3b_1
*CAP
1 *304:B 0.000342058
2 *336:A2 0
3 *327:B 8.99037e-06
4 *319:B 0
5 *283:X 0.000259853
6 *27:42 0.00080346
7 *27:21 0.000607266
8 *27:12 0.000396727
9 *304:B *304:A 0.000141734
10 *304:B *305:B1 4.8365e-05
11 *304:B *336:A1 0.000180664
12 *327:B *373:A 7.34187e-06
13 *27:12 *283:C 0
14 *27:12 *319:A 1.02504e-05
15 *27:12 *323:C 0
16 *27:12 *326:A1 3.67356e-05
17 *27:12 *326:A3 0.000125724
18 *27:12 *327:A 0
19 *27:12 *374:A 0.000151333
20 *27:21 *373:A 0.000101157
21 *27:21 *109:74 5.33005e-05
22 *27:42 *336:A1 3.9228e-05
23 *27:42 *336:B2 1.28809e-05
24 *27:42 *336:C1 5.49544e-05
25 *27:42 *341:B1 3.77188e-05
26 *27:42 *373:A 9.31095e-05
27 *27:42 *79:76 0.000173083
28 *27:42 *90:53 0
29 *27:42 *91:38 0.000139637
30 *27:42 *106:69 6.74911e-05
31 *27:42 *109:70 0.000548949
32 *27:42 *109:74 5.33005e-05
33 *27:42 *110:85 0
34 *22:56 *304:B 5.65739e-05
*RES
1 *283:X *27:12 23.2107 
2 *27:12 *319:B 9.3 
3 *27:12 *27:21 3.01786 
4 *27:21 *327:B 9.72857 
5 *27:21 *27:42 20.2902 
6 *27:42 *336:A2 9.3 
7 *27:42 *304:B 24.5991 
*END

*D_NET *28 0.00059237
*CONN
*I *288:C1 I *D sky130_fd_sc_hd__a2111o_1
*I *284:X O *D sky130_fd_sc_hd__and4b_1
*CAP
1 *288:C1 0.000132713
2 *284:X 0.000132713
3 *288:C1 *288:A2 3.34366e-05
4 *288:C1 *288:B1 4.87953e-05
5 *288:C1 *94:109 0.000146474
6 *288:C1 *99:36 0
7 *288:C1 *111:8 6.57032e-05
8 *288:C1 *111:104 3.2534e-05
*RES
1 *284:X *288:C1 30.9036 
*END

*D_NET *29 0.000678163
*CONN
*I *288:D1 I *D sky130_fd_sc_hd__a2111o_1
*I *285:X O *D sky130_fd_sc_hd__o211a_1
*CAP
1 *288:D1 0.000158267
2 *285:X 0.000158267
3 *288:D1 *285:B1 0.000135028
4 *288:D1 *288:A1 7.83659e-05
5 *288:D1 *368:A 2.49484e-05
6 *288:D1 *109:39 0.000123288
*RES
1 *285:X *288:D1 30.6 
*END

*D_NET *30 0.00225783
*CONN
*I *288:A2 I *D sky130_fd_sc_hd__a2111o_1
*I *366:A I *D sky130_fd_sc_hd__clkbuf_2
*I *302:A2 I *D sky130_fd_sc_hd__a2111o_1
*I *286:Y O *D sky130_fd_sc_hd__nor3b_1
*CAP
1 *288:A2 0.000204128
2 *366:A 4.8232e-05
3 *302:A2 0
4 *286:Y 0.000228298
5 *30:12 6.84305e-05
6 *30:8 0.000452624
7 *288:A2 *287:C 1.21955e-05
8 *288:A2 *288:B1 7.83587e-05
9 *288:A2 *79:12 1.40849e-05
10 *288:A2 *79:18 4.98946e-05
11 *288:A2 *94:109 9.65075e-05
12 *288:A2 *99:36 0.000109892
13 *366:A *90:6 2.44318e-05
14 *366:A *109:29 7.48091e-05
15 *30:8 *286:B 7.50601e-05
16 *30:8 *298:D 3.90513e-05
17 *30:8 *302:B1 3.25078e-05
18 *30:8 *79:18 0.000271475
19 *30:8 *99:25 0.000289564
20 *30:8 *99:36 0
21 *30:12 *90:6 2.89114e-05
22 *30:12 *109:29 1.98839e-05
23 *30:12 *109:39 6.05161e-06
24 *288:C1 *288:A2 3.34366e-05
*RES
1 *286:Y *30:8 20.6036 
2 *30:8 *30:12 5.03571 
3 *30:12 *302:A2 9.3 
4 *30:12 *366:A 10.6571 
5 *30:8 *288:A2 19.3179 
*END

*D_NET *31 0.000556408
*CONN
*I *288:B1 I *D sky130_fd_sc_hd__a2111o_1
*I *287:X O *D sky130_fd_sc_hd__and4b_1
*CAP
1 *288:B1 0.000185861
2 *287:X 0.000185861
3 *288:B1 *99:36 3.92757e-05
4 *288:B1 *111:8 1.82549e-05
5 *288:A2 *288:B1 7.83587e-05
6 *288:C1 *288:B1 4.87953e-05
*RES
1 *287:X *288:B1 30.4036 
*END

*D_NET *32 0.000753727
*CONN
*I *289:B2 I *D sky130_fd_sc_hd__o22a_1
*I *288:X O *D sky130_fd_sc_hd__a2111o_1
*CAP
1 *289:B2 0.000160744
2 *288:X 0.000160744
3 *289:B2 *284:D 8.25843e-06
4 *289:B2 *285:B1 0
5 *289:B2 *288:A1 1.08359e-05
6 *289:B2 *368:A 0.000174446
7 *289:B2 *80:70 0.000131824
8 *289:B2 *104:130 0.000100823
9 *289:B2 *109:49 6.05161e-06
*RES
1 *288:X *289:B2 31.5464 
*END

*D_NET *33 0.000475281
*CONN
*I *294:C1 I *D sky130_fd_sc_hd__a221o_1
*I *290:X O *D sky130_fd_sc_hd__and4b_1
*CAP
1 *294:C1 0.000168501
2 *290:X 0.000168501
3 *294:C1 *294:A2 1.95067e-05
4 *294:C1 *294:B1 0
5 *294:C1 *294:B2 1.38323e-05
6 *294:C1 *296:B1 0
7 *294:C1 *346:A 1.97695e-05
8 *294:C1 *369:A 0
9 *294:C1 *79:46 9.59532e-06
10 *294:C1 *96:14 0
11 *320:B1 *294:C1 7.55747e-05
*RES
1 *290:X *294:C1 30.3143 
*END

*D_NET *34 0.000303207
*CONN
*I *295:B1 I *D sky130_fd_sc_hd__a2111o_1
*I *291:X O *D sky130_fd_sc_hd__and4b_1
*CAP
1 *295:B1 9.0926e-05
2 *291:X 9.0926e-05
3 *295:B1 *291:C 2.94059e-05
4 *295:B1 *348:A 5.71472e-05
5 *295:B1 *349:A 3.48023e-05
*RES
1 *291:X *295:B1 29.1714 
*END

*D_NET *35 0.00103408
*CONN
*I *295:C1 I *D sky130_fd_sc_hd__a2111o_1
*I *292:X O *D sky130_fd_sc_hd__o211a_1
*CAP
1 *295:C1 0.000339182
2 *292:X 0.000339182
3 *295:C1 *295:D1 0.000121415
4 *295:C1 *349:A 6.18969e-06
5 *295:C1 *90:6 0.000137983
6 *295:C1 *94:29 9.0127e-05
7 *295:C1 *98:10 0
8 *295:C1 *98:78 0
*RES
1 *292:X *295:C1 33.3321 
*END

*D_NET *36 0.00048551
*CONN
*I *295:D1 I *D sky130_fd_sc_hd__a2111o_1
*I *293:X O *D sky130_fd_sc_hd__and4bb_1
*CAP
1 *295:D1 9.73731e-05
2 *293:X 9.73731e-05
3 *295:D1 *349:A 7.69776e-06
4 *295:D1 *79:34 9.58126e-05
5 *295:D1 *94:29 1.02504e-05
6 *295:D1 *95:23 0
7 *295:C1 *295:D1 0.000121415
8 *24:12 *295:D1 1.07561e-05
9 *24:22 *295:D1 4.48318e-05
*RES
1 *293:X *295:D1 30.1893 
*END

*D_NET *37 0.000357624
*CONN
*I *296:B1 I *D sky130_fd_sc_hd__o22a_1
*I *294:X O *D sky130_fd_sc_hd__a221o_1
*CAP
1 *296:B1 7.41656e-05
2 *294:X 7.41656e-05
3 *296:B1 *294:B1 0.000135279
4 *296:B1 *296:A1 2.14658e-05
5 *296:B1 *369:A 2.84026e-05
6 *296:B1 *98:16 2.41459e-05
7 *294:C1 *296:B1 0
*RES
1 *294:X *296:B1 20.6893 
*END

*D_NET *38 0.000420528
*CONN
*I *296:B2 I *D sky130_fd_sc_hd__o22a_1
*I *295:X O *D sky130_fd_sc_hd__a2111o_1
*CAP
1 *296:B2 0.000114836
2 *295:X 0.000114836
3 *296:B2 *79:34 5.65955e-05
4 *296:B2 *98:10 7.83659e-05
5 *296:B2 *98:78 5.58941e-05
*RES
1 *295:X *296:B2 29.7786 
*END

*D_NET *39 0.00176624
*CONN
*I *301:C1 I *D sky130_fd_sc_hd__a221o_1
*I *297:X O *D sky130_fd_sc_hd__and4b_1
*CAP
1 *301:C1 0.000777001
2 *297:X 0.000777001
3 *301:C1 *297:D 4.78905e-05
4 *301:C1 *80:36 4.5534e-05
5 *301:C1 *106:69 2.22164e-05
6 *301:C1 *108:57 5.33005e-05
7 *301:C1 *111:12 4.32957e-05
*RES
1 *297:X *301:C1 37.085 
*END

*D_NET *40 0.00123473
*CONN
*I *302:B1 I *D sky130_fd_sc_hd__a2111o_1
*I *298:X O *D sky130_fd_sc_hd__and4b_1
*CAP
1 *302:B1 0.000302213
2 *298:X 0.000302213
3 *302:B1 *295:A1 1.18644e-05
4 *302:B1 *298:C 0.0001399
5 *302:B1 *298:D 2.3541e-05
6 *302:B1 *302:C1 0.000103267
7 *302:B1 *79:18 0.00020042
8 *302:B1 *79:34 7.6644e-05
9 *302:B1 *94:103 4.21584e-05
10 *30:8 *302:B1 3.25078e-05
*RES
1 *298:X *302:B1 33.6536 
*END

*D_NET *41 0.000638559
*CONN
*I *302:C1 I *D sky130_fd_sc_hd__a2111o_1
*I *299:X O *D sky130_fd_sc_hd__o211a_1
*CAP
1 *302:C1 0.000136452
2 *299:X 0.000136452
3 *302:C1 *300:D 0.000137983
4 *302:C1 *94:103 0.000101545
5 *302:C1 *105:41 2.28598e-05
6 *302:B1 *302:C1 0.000103267
*RES
1 *299:X *302:C1 30.7071 
*END

*D_NET *42 0.000462965
*CONN
*I *302:D1 I *D sky130_fd_sc_hd__a2111o_1
*I *300:X O *D sky130_fd_sc_hd__and4bb_1
*CAP
1 *302:D1 0.000106042
2 *300:X 0.000106042
3 *302:D1 *287:B 7.83587e-05
4 *302:D1 *80:36 7.83587e-05
5 *302:D1 *90:6 9.41642e-05
*RES
1 *300:X *302:D1 29.5821 
*END

*D_NET *43 0.000363
*CONN
*I *303:B1 I *D sky130_fd_sc_hd__o22a_1
*I *301:X O *D sky130_fd_sc_hd__a221o_1
*CAP
1 *303:B1 0.000120148
2 *301:X 0.000120148
3 *303:B1 *301:A1 5.52238e-05
4 *303:B1 *95:29 6.74815e-05
5 *296:A2 *303:B1 0
6 *22:14 *303:B1 0
*RES
1 *301:X *303:B1 29.7786 
*END

*D_NET *44 0.000957061
*CONN
*I *303:B2 I *D sky130_fd_sc_hd__o22a_1
*I *302:X O *D sky130_fd_sc_hd__a2111o_1
*CAP
1 *303:B2 0.000188966
2 *302:X 0.000188966
3 *303:B2 *370:A 8.17663e-05
4 *303:B2 *90:6 0.000477594
5 *303:A2 *303:B2 1.97695e-05
*RES
1 *302:X *303:B2 23.6714 
*END

*D_NET *45 0.000842857
*CONN
*I *311:A1 I *D sky130_fd_sc_hd__o32a_1
*I *304:X O *D sky130_fd_sc_hd__and2_1
*CAP
1 *311:A1 0.00027087
2 *304:X 0.00027087
3 *311:A1 *91:8 0.000125724
4 *311:A1 *95:29 6.42242e-05
5 *22:6 *311:A1 9.90431e-05
6 *22:56 *311:A1 1.21258e-05
*RES
1 *304:X *311:A1 31.8321 
*END

*D_NET *46 0.000440587
*CONN
*I *311:A2 I *D sky130_fd_sc_hd__o32a_1
*I *305:X O *D sky130_fd_sc_hd__a22o_1
*CAP
1 *311:A2 0.000117177
2 *305:X 0.000117177
3 *311:A2 *311:A3 5.52238e-05
4 *311:A2 *311:B2 4.27935e-05
5 *311:A2 *338:A2 9.60875e-05
6 *311:A2 *109:49 1.21289e-05
*RES
1 *305:X *311:A2 20.7786 
*END

*D_NET *47 0.000430587
*CONN
*I *310:A I *D sky130_fd_sc_hd__or4_1
*I *306:X O *D sky130_fd_sc_hd__and4bb_1
*CAP
1 *310:A 0.000134456
2 *306:X 0.000134456
3 *310:A *307:A2 0
4 *310:A *310:B 8.07951e-05
5 *310:A *311:A3 7.83659e-05
6 *310:A *99:62 2.51343e-06
7 result[3] *310:A 0
*RES
1 *306:X *310:A 30.0821 
*END

*D_NET *48 0.000518331
*CONN
*I *310:B I *D sky130_fd_sc_hd__or4_1
*I *307:X O *D sky130_fd_sc_hd__o211a_1
*CAP
1 *310:B 0.000155548
2 *307:X 0.000155548
3 *310:B *307:A2 0
4 *310:B *310:C 0.000126439
5 *310:A *310:B 8.07951e-05
*RES
1 *307:X *310:B 30.6893 
*END

*D_NET *49 0.00098492
*CONN
*I *310:C I *D sky130_fd_sc_hd__or4_1
*I *308:X O *D sky130_fd_sc_hd__and4b_1
*CAP
1 *310:C 0.000284803
2 *308:X 0.000284803
3 *310:C *307:A1 0.000226507
4 *310:C *307:B1 3.34672e-05
5 result[3] *310:C 2.89016e-05
6 *310:B *310:C 0.000126439
*RES
1 *308:X *310:C 32.3679 
*END

*D_NET *50 7.46845e-05
*CONN
*I *310:D I *D sky130_fd_sc_hd__or4_1
*I *309:X O *D sky130_fd_sc_hd__and4bb_1
*CAP
1 *310:D 2.14084e-05
2 *309:X 2.14084e-05
3 result[3] *310:D 3.18676e-05
*RES
1 *309:X *310:D 19.1357 
*END

*D_NET *51 0.00240347
*CONN
*I *311:A3 I *D sky130_fd_sc_hd__o32a_1
*I *310:X O *D sky130_fd_sc_hd__or4_1
*CAP
1 *311:A3 0.000709264
2 *310:X 0.000709264
3 *311:A3 *307:A2 0
4 *311:A3 *79:8 0.000269422
5 *311:A3 *99:62 0.000176234
6 *311:A3 *109:49 0.00027949
7 result[3] *311:A3 9.27737e-05
8 *310:A *311:A3 7.83659e-05
9 *311:A2 *311:A3 5.52238e-05
10 *356:A *311:A3 3.34366e-05
*RES
1 *310:X *311:A3 42.4929 
*END

*D_NET *52 0.00105598
*CONN
*I *316:C1 I *D sky130_fd_sc_hd__a221o_1
*I *312:X O *D sky130_fd_sc_hd__and4b_1
*CAP
1 *316:C1 0.000325011
2 *312:X 0.000325011
3 *316:C1 *316:B2 0.000121842
4 *316:C1 *106:44 6.73608e-05
5 *316:C1 *107:44 0.000216755
*RES
1 *312:X *316:C1 32.2429 
*END

*D_NET *53 0.000429139
*CONN
*I *317:B1 I *D sky130_fd_sc_hd__a2111o_1
*I *313:X O *D sky130_fd_sc_hd__and4bb_1
*CAP
1 *317:B1 0.000121748
2 *313:X 0.000121748
3 *317:B1 *102:41 0.000185643
*RES
1 *313:X *317:B1 20.3679 
*END

*D_NET *54 0.000456578
*CONN
*I *317:C1 I *D sky130_fd_sc_hd__a2111o_1
*I *314:X O *D sky130_fd_sc_hd__o211a_1
*CAP
1 *317:C1 7.45174e-05
2 *314:X 7.45174e-05
3 *317:C1 *314:A2 3.67257e-05
4 *317:C1 *317:D1 2.14199e-05
5 *317:C1 *318:B2 2.49182e-05
6 *317:C1 *102:41 0.00022448
*RES
1 *314:X *317:C1 21.3321 
*END

*D_NET *55 0.000992924
*CONN
*I *317:D1 I *D sky130_fd_sc_hd__a2111o_1
*I *315:X O *D sky130_fd_sc_hd__and4b_1
*CAP
1 *317:D1 0.000359676
2 *315:X 0.000359676
3 *317:D1 *314:A2 9.25014e-06
4 *317:D1 *318:B2 5.52302e-05
5 *317:D1 *92:104 2.8266e-06
6 *317:D1 *100:10 0
7 *317:D1 *100:27 0
8 *317:D1 *108:8 0.000144773
9 *317:D1 *108:25 4.00725e-05
10 *317:C1 *317:D1 2.14199e-05
*RES
1 *315:X *317:D1 32.8321 
*END

*D_NET *56 0.000979284
*CONN
*I *318:B1 I *D sky130_fd_sc_hd__o22a_1
*I *316:X O *D sky130_fd_sc_hd__a221o_1
*CAP
1 *318:B1 0.000220026
2 *316:X 0.000220026
3 *318:B1 *316:A2 6.05161e-06
4 *318:B1 *318:A1 3.18676e-05
5 *318:B1 *110:29 0.000186155
6 *318:A2 *318:B1 0.000315158
*RES
1 *316:X *318:B1 24.6357 
*END

*D_NET *57 0.00115503
*CONN
*I *318:B2 I *D sky130_fd_sc_hd__o22a_1
*I *317:X O *D sky130_fd_sc_hd__a2111o_1
*CAP
1 *318:B2 0.000303784
2 *317:X 0.000303784
3 *318:B2 *314:A2 0.000139507
4 *318:B2 *318:A1 5.80706e-06
5 *318:B2 *333:A 0.000150625
6 *318:B2 *92:104 0.000171375
7 *318:B2 *100:54 0
8 *317:C1 *318:B2 2.49182e-05
9 *317:D1 *318:B2 5.52302e-05
*RES
1 *317:X *318:B2 33.7429 
*END

*D_NET *58 0.00047084
*CONN
*I *326:A1 I *D sky130_fd_sc_hd__o32a_1
*I *319:X O *D sky130_fd_sc_hd__and2_1
*CAP
1 *326:A1 6.22156e-05
2 *319:X 6.22156e-05
3 *326:A1 *283:C 3.90513e-05
4 *326:A1 *326:B2 5.52302e-05
5 *326:A1 *373:A 8.00806e-05
6 *326:A1 *374:A 8.00806e-05
7 *326:A1 *375:A 5.52302e-05
8 *27:12 *326:A1 3.67356e-05
*RES
1 *319:X *326:A1 30.0821 
*END

*D_NET *59 0.00224921
*CONN
*I *326:A2 I *D sky130_fd_sc_hd__o32a_1
*I *320:X O *D sky130_fd_sc_hd__a22o_1
*CAP
1 *326:A2 0.000585158
2 *320:X 0.000585158
3 *326:A2 *314:A2 0.000222666
4 *326:A2 *318:A1 0.000125814
5 *326:A2 *326:B2 9.90431e-05
6 *326:A2 *334:A1 0.000106217