*SPEF "ieee 1481-1999"
*DESIGN "barrelShifter"
*DATE "00:55:35 Saturday May 16, 2026"
*VENDOR "The OpenROAD Project"
*PROGRAM "OpenROAD"
*VERSION "v2.0-16235-gedf00dff9"
*DESIGN_FLOW "NAME_SCOPE LOCAL" "PIN_CAP NONE"
*DIVIDER /
*DELIMITER :
*BUS_DELIMITER []
*T_UNIT 1 NS
*C_UNIT 1 PF
*R_UNIT 1 OHM
*L_UNIT 1 HENRY

*NAME_MAP
*3 amt[0]
*4 amt[1]
*5 amt[2]
*6 data[0]
*7 data[1]
*8 data[2]
*9 data[3]
*10 data[4]
*11 data[5]
*12 data[6]
*13 data[7]
*14 result[0]
*15 result[1]
*16 result[2]
*17 result[3]
*18 result[4]
*19 result[5]
*20 result[6]
*21 result[7]
*22 _000_
*23 _001_
*24 _002_
*25 _003_
*26 _004_
*27 _005_
*28 _006_
*29 _007_
*30 _008_
*31 _009_
*32 _010_
*33 _011_
*34 _012_
*35 _013_
*36 _014_
*37 _015_
*38 _016_
*39 _017_
*40 _018_
*41 _019_
*42 _020_
*43 _021_
*44 _022_
*45 _023_
*46 _024_
*47 _025_
*48 _026_
*49 _027_
*50 _028_
*51 _029_
*52 _030_
*53 _031_
*54 _032_
*55 _033_
*56 _034_
*57 _035_
*58 _036_
*59 _037_
*60 _038_
*61 _039_
*62 _040_
*63 _041_
*64 _042_
*65 _043_
*66 _044_
*67 _045_
*68 _046_
*69 _047_
*70 _048_
*71 _049_
*72 _050_
*73 _051_
*74 _052_
*75 _053_
*76 _054_
*77 _055_
*78 net1
*79 net10
*80 net11
*81 net12
*82 net13
*83 net14
*84 net15
*85 net16
*86 net17
*87 net18
*88 net19
*89 net2
*90 net20
*91 net21
*92 net22
*93 net23
*94 net24
*95 net25
*96 net26
*97 net27
*98 net28
*99 net29
*100 net3
*101 net30
*102 net31
*103 net32
*104 net33
*105 net34
*106 net4
*107 net5
*108 net6
*109 net7
*110 net8
*111 net9
*112 FILLER_0_23
*113 FILLER_0_29
*114 FILLER_0_3
*115 FILLER_0_35
*116 FILLER_0_57
*117 FILLER_0_60
*118 FILLER_0_63
*119 FILLER_0_71
*120 FILLER_0_74
*121 FILLER_0_77
*122 FILLER_10_15
*123 FILLER_10_26
*124 FILLER_10_41
*125 FILLER_10_44
*126 FILLER_10_51
*127 FILLER_10_54
*128 FILLER_10_57
*129 FILLER_10_75
*130 FILLER_11_11
*131 FILLER_11_25
*132 FILLER_11_52
*133 FILLER_11_55
*134 FILLER_11_57
*135 FILLER_11_60
*136 FILLER_11_63
*137 FILLER_11_66
*138 FILLER_11_69
*139 FILLER_11_7
*140 FILLER_11_72
*141 FILLER_11_75
*142 FILLER_12_12
*143 FILLER_12_15
*144 FILLER_12_18
*145 FILLER_12_21
*146 FILLER_12_24
*147 FILLER_12_27
*148 FILLER_12_29
*149 FILLER_12_32
*150 FILLER_12_35
*151 FILLER_12_38
*152 FILLER_12_41
*153 FILLER_12_44
*154 FILLER_12_47
*155 FILLER_12_50
*156 FILLER_12_53
*157 FILLER_12_57
*158 FILLER_12_6
*159 FILLER_12_60
*160 FILLER_12_63
*161 FILLER_12_66
*162 FILLER_12_69
*163 FILLER_12_72
*164 FILLER_12_75
*165 FILLER_12_9
*166 FILLER_1_3
*167 FILLER_1_39
*168 FILLER_1_54
*169 FILLER_1_75
*170 FILLER_2_44
*171 FILLER_3_11
*172 FILLER_3_20
*173 FILLER_3_23
*174 FILLER_3_26
*175 FILLER_3_35
*176 FILLER_3_38
*177 FILLER_3_57
*178 FILLER_3_60
*179 FILLER_3_76
*180 FILLER_4_18
*181 FILLER_4_29
*182 FILLER_4_32
*183 FILLER_4_35
*184 FILLER_4_60
*185 FILLER_4_7
*186 FILLER_4_73
*187 FILLER_5_18
*188 FILLER_5_21
*189 FILLER_5_24
*190 FILLER_5_3
*191 FILLER_5_32
*192 FILLER_5_35
*193 FILLER_5_38
*194 FILLER_5_51
*195 FILLER_5_54
*196 FILLER_5_57
*197 FILLER_5_60
*198 FILLER_5_72
*199 FILLER_6_13
*200 FILLER_6_23
*201 FILLER_6_26
*202 FILLER_6_36
*203 FILLER_6_39
*204 FILLER_6_46
*205 FILLER_6_49
*206 FILLER_6_52
*207 FILLER_6_7
*208 FILLER_7_39
*209 FILLER_7_57
*210 FILLER_7_60
*211 FILLER_7_63
*212 FILLER_7_66
*213 FILLER_7_69
*214 FILLER_7_72
*215 FILLER_8_10
*216 FILLER_8_13
*217 FILLER_8_16
*218 FILLER_8_19
*219 FILLER_8_22
*220 FILLER_8_25
*221 FILLER_8_29
*222 FILLER_8_37
*223 FILLER_8_40
*224 FILLER_8_48
*225 FILLER_8_64
*226 FILLER_8_76
*227 FILLER_9_23
*228 FILLER_9_26
*229 FILLER_9_29
*230 FILLER_9_3
*231 FILLER_9_38
*232 FILLER_9_41
*233 FILLER_9_44
*234 FILLER_9_47
*235 FILLER_9_54
*236 FILLER_9_77
*237 PHY_EDGE_ROW_0_Left_13
*238 PHY_EDGE_ROW_0_Right_0
*239 PHY_EDGE_ROW_10_Left_23
*240 PHY_EDGE_ROW_10_Right_10
*241 PHY_EDGE_ROW_11_Left_24
*242 PHY_EDGE_ROW_11_Right_11
*243 PHY_EDGE_ROW_12_Left_25
*244 PHY_EDGE_ROW_12_Right_12
*245 PHY_EDGE_ROW_1_Left_14
*246 PHY_EDGE_ROW_1_Right_1
*247 PHY_EDGE_ROW_2_Left_15
*248 PHY_EDGE_ROW_2_Right_2
*249 PHY_EDGE_ROW_3_Left_16
*250 PHY_EDGE_ROW_3_Right_3
*251 PHY_EDGE_ROW_4_Left_17
*252 PHY_EDGE_ROW_4_Right_4
*253 PHY_EDGE_ROW_5_Left_18
*254 PHY_EDGE_ROW_5_Right_5
*255 PHY_EDGE_ROW_6_Left_19
*256 PHY_EDGE_ROW_6_Right_6
*257 PHY_EDGE_ROW_7_Left_20
*258 PHY_EDGE_ROW_7_Right_7
*259 PHY_EDGE_ROW_8_Left_21
*260 PHY_EDGE_ROW_8_Right_8
*261 PHY_EDGE_ROW_9_Left_22
*262 PHY_EDGE_ROW_9_Right_9
*263 TAP_TAPCELL_ROW_0_26
*264 TAP_TAPCELL_ROW_0_27
*265 TAP_TAPCELL_ROW_10_37
*266 TAP_TAPCELL_ROW_11_38
*267 TAP_TAPCELL_ROW_12_39
*268 TAP_TAPCELL_ROW_12_40
*269 TAP_TAPCELL_ROW_1_28
*270 TAP_TAPCELL_ROW_2_29
*271 TAP_TAPCELL_ROW_3_30
*272 TAP_TAPCELL_ROW_4_31
*273 TAP_TAPCELL_ROW_5_32
*274 TAP_TAPCELL_ROW_6_33
*275 TAP_TAPCELL_ROW_7_34
*276 TAP_TAPCELL_ROW_8_35
*277 TAP_TAPCELL_ROW_9_36
*278 _056_
*279 _057_
*280 _058_
*281 _059_
*282 _060_
*283 _061_
*284 _062_
*285 _063_
*286 _064_
*287 _065_
*288 _066_
*289 _067_
*290 _068_
*291 _069_
*292 _070_
*293 _071_
*294 _072_
*295 _073_
*296 _074_
*297 _075_
*298 _076_
*299 _077_
*300 _078_
*301 _079_
*302 _080_
*303 _081_
*304 _082_
*305 _083_
*306 _084_
*307 _085_
*308 _086_
*309 _087_
*310 _088_
*311 _089_
*312 _090_
*313 _091_
*314 _092_
*315 _093_
*316 _094_
*317 _095_
*318 _096_
*319 _097_
*320 _098_
*321 _099_
*322 _100_
*323 _101_
*324 _102_
*325 _103_
*326 _104_
*327 _105_
*328 _106_
*329 _107_
*330 _108_
*331 _109_
*332 _110_
*333 _111_
*334 _112_
*335 _113_
*336 _114_
*337 _115_
*338 _116_
*339 _117_
*340 _118_
*341 _119_
*342 fanout22
*343 fanout23
*344 fanout24
*345 fanout25
*346 fanout26
*347 fanout27
*348 fanout28
*349 fanout29
*350 fanout30
*351 fanout31
*352 fanout32
*353 fanout33
*354 fanout34
*355 input1
*356 input10
*357 input11
*358 input2
*359 input3
*360 input4
*361 input5
*362 input6
*363 input7
*364 input8
*365 input9
*366 max_cap20
*367 max_cap21
*368 output12
*369 output13
*370 output14
*371 output15
*372 output16
*373 output17
*374 output18
*375 output19

*PORTS
amt[0] I
amt[1] I
amt[2] I
data[0] I
data[1] I
data[2] I
data[3] I
data[4] I
data[5] I
data[6] I
data[7] I
result[0] O
result[1] O
result[2] O
result[3] O
result[4] O
result[5] O
result[6] O
result[7] O

*D_NET *3 0.000658406
*CONN
*P amt[0] I
*I *355:A I *D sky130_fd_sc_hd__buf_1
*CAP
1 amt[0] 0.00031858
2 *355:A 0
3 *3:17 0.00031858
4 *3:17 *361:A 2.12457e-05
*RES
1 amt[0] *3:17 27.1584 
2 *3:17 *355:A 23 
*END

*D_NET *4 0.00170059
*CONN
*P amt[1] I
*I *358:A I *D sky130_fd_sc_hd__clkbuf_1
*CAP
1 amt[1] 0.000799645
2 *358:A 0.000799645
3 *358:A *315:C 0
4 *358:A *360:A 2.98176e-05
5 *358:A *5:15 7.1481e-05
*RES
1 amt[1] *358:A 49.9472 
*END

*D_NET *5 0.00200814
*CONN
*P amt[2] I
*I *359:A I *D sky130_fd_sc_hd__buf_1
*CAP
1 amt[2] 0.000497043
2 *359:A 0
3 *5:15 0.000497043
4 *5:15 *315:A_N 0.0001144
5 *5:15 *8:17 0.000599269
6 *5:15 *108:8 0.000228909
7 *358:A *5:15 7.1481e-05
*RES
1 amt[2] *5:15 33.1902 
2 *5:15 *359:A 23 
*END

*D_NET *6 0.000936555
*CONN
*P data[0] I
*I *360:A I *D sky130_fd_sc_hd__clkbuf_2
*CAP
1 data[0] 0.00043975
2 *360:A 0.00043975
3 *360:A result[1] 0
4 *360:A *89:10 2.7237e-05
5 *358:A *360:A 2.98176e-05
*RES
1 data[0] *360:A 47.4457 
*END

*D_NET *7 0.000637051
*CONN
*P data[1] I
*I *361:A I *D sky130_fd_sc_hd__clkbuf_2
*CAP
1 data[1] 0.000293947
2 *361:A 0.000293947
3 *361:A result[7] 0
4 *361:A *351:A 0
5 *361:A *13:17 2.79122e-05
6 *3:17 *361:A 2.12457e-05
*RES
1 data[1] *361:A 48.2212 
*END

*D_NET *8 0.00223009
*CONN
*P data[2] I
*I *362:A I *D sky130_fd_sc_hd__clkbuf_2
*CAP
1 data[2] 0.000641476
2 *362:A 0
3 *8:17 0.000641476
4 *8:17 result[4] 4.40799e-05
5 *8:17 *315:A_N 7.02927e-05
6 *8:17 *315:B 6.04017e-05
7 *8:17 *315:C 6.46224e-05
8 *8:17 *315:D 2.35426e-05
9 *8:17 *102:18 3.34818e-06
10 *8:17 *102:20 5.19001e-05
11 *8:17 *102:22 2.96847e-05
12 *5:15 *8:17 0.000599269
*RES
1 data[2] *8:17 36.5222 
2 *8:17 *362:A 23 
*END

*D_NET *9 0.000561446
*CONN
*P data[3] I
*I *363:A I *D sky130_fd_sc_hd__clkbuf_2
*CAP
1 data[3] 0.000219797
2 *363:A 0.000219797
3 *363:A result[2] 9.65101e-05
4 *363:A *109:18 2.5343e-05
*RES
1 data[3] *363:A 47.2507 
*END

*D_NET *10 0.000776653
*CONN
*P data[4] I
*I *364:A I *D sky130_fd_sc_hd__clkbuf_2
*CAP
1 data[4] 0.000332341
2 *364:A 0
3 *10:17 0.000332341
4 *10:17 result[4] 3.12475e-05
5 *10:17 result[5] 2.12457e-05
6 *10:17 *96:50 5.3304e-05
7 *10:17 *96:63 0
8 *10:17 *102:84 6.17437e-06
*RES
1 data[4] *10:17 27.6348 
2 *10:17 *364:A 23 
*END

*D_NET *11 0.000744895
*CONN
*P data[5] I
*I *365:A I *D sky130_fd_sc_hd__clkbuf_2
*CAP
1 data[5] 0.000256543
2 *365:A 0.000256543
3 *365:A result[0] 9.65101e-05
4 *365:A *356:A 8.77791e-05
5 *365:A *99:36 4.752e-05
*RES
1 data[5] *365:A 48.3071 
*END

*D_NET *12 0.000623664
*CONN
*P data[6] I
*I *356:A I *D sky130_fd_sc_hd__clkbuf_2
*CAP
1 data[6] 0.000206314
2 *356:A 0.000206314
3 *356:A result[3] 8.06147e-05
4 *356:A *51:10 3.70187e-05
5 *356:A *99:62 5.62433e-06
6 *365:A *356:A 8.77791e-05
*RES
1 data[6] *356:A 47.6028 
*END

*D_NET *13 0.000724142
*CONN
*P data[7] I
*I *357:A I *D sky130_fd_sc_hd__clkbuf_2
*CAP
1 data[7] 0.000337492
2 *357:A 0
3 *13:17 0.000337492
4 *13:17 result[7] 2.12457e-05
5 *361:A *13:17 2.79122e-05
*RES
1 data[7] *13:17 27.6348 
2 *13:17 *357:A 23 
*END

*D_NET *14 0.000547988
*CONN
*P result[0] O
*I *368:X O *D sky130_fd_sc_hd__buf_2
*CAP
1 result[0] 0.000169932
2 *368:X 0.000169932
3 result[0] result[2] 9.8882e-05
4 result[0] *99:36 1.27321e-05
5 *365:A result[0] 9.65101e-05
*RES
1 *368:X result[0] 47.2507 
*END

*D_NET *15 0.000929223
*CONN
*P result[1] O
*I *369:X O *D sky130_fd_sc_hd__buf_2
*CAP
1 result[1] 0.000464611
2 *369:X 0.000464611
3 *360:A result[1] 0
*RES
1 *369:X result[1] 47.0936 
*END

*D_NET *16 0.00182519
*CONN
*P result[2] O
*I *370:X O *D sky130_fd_sc_hd__buf_2
*CAP
1 result[2] 0.000718959
2 *370:X 0.000718959
3 result[2] *287:B 6.16635e-05
4 result[2] *104:57 0.000130212
5 result[0] result[2] 9.8882e-05
6 *363:A result[2] 9.65101e-05
*RES
1 *370:X result[2] 49.7755 
*END

*D_NET *17 0.00228273
*CONN
*P result[3] O
*I *371:X O *D sky130_fd_sc_hd__buf_2
*CAP
1 result[3] 0.000165287
2 *371:X 0.000706561
3 *17:14 0.000871848
4 *17:14 *309:C 0.000237519
5 *17:14 *309:D 2.18409e-05
6 *17:14 *310:C 2.93747e-05
7 *17:14 *310:D 3.22879e-05
8 *17:14 *47:10 0
9 *17:14 *51:10 9.22523e-05
10 *17:14 *80:22 2.93747e-05
11 *17:14 *99:92 1.5769e-05
12 *356:A result[3] 8.06147e-05
*RES
1 *371:X *17:14 49.9211 
2 *17:14 result[3] 8.75787 
*END

*D_NET *18 0.000895018
*CONN
*P result[4] O
*I *372:X O *D sky130_fd_sc_hd__buf_2
*CAP
1 result[4] 8.35651e-05
2 *372:X 0.000325053
3 *18:10 0.000408618
4 result[4] result[5] 0
5 *18:10 *329:B_N 2.45549e-06
6 *18:10 *102:16 0
7 *18:10 *102:18 0
8 *8:17 result[4] 4.40799e-05
9 *10:17 result[4] 3.12475e-05
*RES
1 *372:X *18:10 42.9611 
2 *18:10 result[4] 8.4144 
*END

*D_NET *19 0.002119
*CONN
*P result[5] O
*I *373:X O *D sky130_fd_sc_hd__buf_2
*CAP
1 result[5] 0.000995145
2 *373:X 0.000995145
3 result[5] result[6] 5.11907e-05
4 result[5] *59:10 2.26497e-05
5 result[5] *100:54 2.26497e-05
6 result[5] *111:71 1.09714e-05
7 result[4] result[5] 0
8 *10:17 result[5] 2.12457e-05
*RES
1 *373:X result[5] 48.6245 
*END

*D_NET *20 0.000860818
*CONN
*P result[6] O
*I *374:X O *D sky130_fd_sc_hd__buf_2
*CAP
1 result[6] 9.01465e-05
2 *374:X 0.000270999
3 *20:12 0.000361145
4 result[6] result[7] 5.08354e-05
5 *20:12 *283:A_N 3.65014e-05
6 result[5] result[6] 5.11907e-05
*RES
1 *374:X *20:12 49.7804 
2 *20:12 result[6] 0.500267 
*END

*D_NET *21 0.000963819
*CONN
*P result[7] O
*I *375:X O *D sky130_fd_sc_hd__buf_2
*CAP
1 result[7] 0.000157452
2 *375:X 0.00020832
3 *21:12 0.000365773
4 *21:12 *283:A_N 0.000141879
5 *21:12 *102:12 1.83142e-05
6 result[6] result[7] 5.08354e-05
7 *361:A result[7] 0
8 *13:17 result[7] 2.12457e-05
*RES
1 *375:X *21:12 49.5318 
2 *21:12 result[7] 0.672 
*END

*D_NET *22 0.0112709
*CONN
*I *318:A2 I *D sky130_fd_sc_hd__o22a_1
*I *326:B1 I *D sky130_fd_sc_hd__o32a_1
*I *334:B1 I *D sky130_fd_sc_hd__o32a_1
*I *341:A2 I *D sky130_fd_sc_hd__o22a_1
*I *311:B1 I *D sky130_fd_sc_hd__o32a_1
*I *289:A2 I *D sky130_fd_sc_hd__o22a_1
*I *303:A2 I *D sky130_fd_sc_hd__o22a_1
*I *296:A2 I *D sky130_fd_sc_hd__o22a_1
*I *278:Y O *D sky130_fd_sc_hd__nand3_4
*CAP
1 *318:A2 0
2 *326:B1 0.000385553
3 *334:B1 1.12789e-05
4 *341:A2 0
5 *311:B1 0
6 *289:A2 0.000301665
7 *303:A2 8.10496e-05
8 *296:A2 0.000372018
9 *278:Y 3.74509e-05
10 *22:99 0.00067044
11 *22:73 0.000466267
12 *22:69 0.00113974
13 *22:56 0.000720029
14 *22:14 0.000788074
15 *22:12 0.000724864
16 *22:10 0.000193452
17 *22:6 0.000462871
18 *289:A2 *80:70 1.59094e-05
19 *289:A2 *80:72 4.75206e-05
20 *289:A2 *91:32 9.62666e-05
21 *296:A2 *296:A1 5.79559e-05
22 *296:A2 *43:10 0
23 *296:A2 *94:29 0.00015795
24 *296:A2 *94:44 3.70187e-05
25 *296:A2 *95:29 0
26 *296:A2 *98:16 5.27233e-05
27 *303:A2 *303:A1 6.8523e-05
28 *303:A2 *44:8 2.02517e-05
29 *303:A2 *90:6 1.76557e-05
30 *326:B1 *326:A2 2.82286e-05
31 *326:B1 *334:A1 4.67488e-05
32 *326:B1 *334:A3 3.0007e-05
33 *334:B1 *334:A1 8.86287e-06
34 *22:6 *45:10 9.84851e-05
35 *22:10 *305:A2 0.000153218
36 *22:10 *91:8 0
37 *22:12 *305:A2 1.01436e-05
38 *22:12 *91:8 0
39 *22:12 *108:93 0.000136486
40 *22:12 *108:105 1.12487e-05
41 *22:12 *110:85 2.71929e-05
42 *22:14 *301:A1 9.87181e-05
43 *22:14 *43:10 0
44 *22:14 *94:44 0.000382114
45 *22:14 *95:29 0
46 *22:14 *104:10 5.62433e-05
47 *22:14 *108:93 0.000409994
48 *22:14 *110:85 3.18662e-05
49 *22:56 *304:A 0.000295377
50 *22:56 *341:A1 5.79559e-05
51 *22:56 *27:59 5.76133e-05
52 *22:56 *45:10 1.21972e-05
53 *22:56 *95:38 0
54 *22:69 *335:A_N 0.000218962
55 *22:69 *335:B 9.28739e-05
56 *22:69 *335:D 0
57 *22:69 *341:A1 0.000254652
58 *22:69 *79:84 0.000221997
59 *22:73 *334:A3 3.3577e-05
60 *22:99 *294:A2 4.43717e-05
61 *22:99 *335:A_N 2.6254e-05
62 *22:99 *335:D 4.21594e-06
63 *22:99 *56:12 0.000313249
64 *22:99 *71:10 0.000316941
65 *22:99 *79:76 0
66 *22:99 *91:38 2.34364e-05
67 *22:99 *91:40 0.000130679
68 *22:99 *100:54 7.92466e-05
69 *22:99 *107:33 0.000142418
70 *22:99 *108:42 0.000141888
71 *22:99 *111:50 0.000346945
*RES
1 *278:Y *22:6 24.0979 
2 *22:6 *22:10 17.2579 
3 *22:10 *22:12 2.25786 
4 *22:12 *22:14 8.94857 
5 *22:14 *296:A2 43.6136 
6 *22:14 *303:A2 39.9471 
7 *22:12 *289:A2 41.9564 
8 *22:10 *311:B1 38 
9 *22:6 *22:56 7.18786 
10 *22:56 *341:A2 23 
11 *22:56 *22:69 23.845 
12 *22:69 *22:73 16.0979 
13 *22:73 *334:B1 23.3211 
14 *22:73 *326:B1 28.3029 
15 *22:69 *22:99 31.9236 
16 *22:99 *318:A2 23 
*END

*D_NET *23 0.00250438
*CONN
*I *367:A I *D sky130_fd_sc_hd__clkbuf_2
*I *305:A2 I *D sky130_fd_sc_hd__a22o_1
*I *340:A2 I *D sky130_fd_sc_hd__a2111o_1
*I *279:Y O *D sky130_fd_sc_hd__nor3_1
*CAP
1 *367:A 9.5908e-05
2 *305:A2 0.00025293
3 *340:A2 0.000341906
4 *279:Y 0
5 *23:17 0.000434568
6 *23:4 0.000427636
7 *305:A2 *305:A1 1.3523e-05
8 *305:A2 *91:8 0
9 *305:A2 *105:25 0
10 *305:A2 *108:105 0.000512436
11 *305:A2 *109:49 8.29713e-05
12 *305:A2 *110:85 1.3523e-05
13 *340:A2 *279:C 1.24376e-05
14 *340:A2 *100:71 4.84129e-06
15 *367:A *80:22 0.000103647
16 *23:17 *105:25 0
17 *23:17 *109:121 4.46962e-05
18 *22:10 *305:A2 0.000153218
19 *22:12 *305:A2 1.01436e-05
*RES
1 *279:Y *23:4 23 
2 *23:4 *340:A2 27.3293 
3 *23:4 *23:17 16.5536 
4 *23:17 *305:A2 45.2293 
5 *23:17 *367:A 40.0507 
*END

*D_NET *24 0.00974916
*CONN
*I *282:B1 I *D sky130_fd_sc_hd__a221o_1
*I *301:B1 I *D sky130_fd_sc_hd__a221o_1
*I *295:A2 I *D sky130_fd_sc_hd__a2111o_1
*I *320:B1 I *D sky130_fd_sc_hd__a22o_1
*I *317:A2 I *D sky130_fd_sc_hd__a2111o_1
*I *280:Y O *D sky130_fd_sc_hd__nor3b_2
*CAP
1 *282:B1 0.00021042
2 *301:B1 4.85508e-05
3 *295:A2 0
4 *320:B1 0
5 *317:A2 0
6 *280:Y 3.75814e-05
7 *24:61 0.00054809
8 *24:45 0.000501323
9 *24:32 0.000389455
10 *24:22 0.00159533
11 *24:12 0.000996029
12 *24:6 0.000618177
13 *282:B1 *282:A1 2.58001e-05
14 *282:B1 *282:A2 0.000117217
15 *282:B1 *301:A1 3.42179e-05
16 *282:B1 *301:A2 7.67478e-05
17 *282:B1 *301:B2 0.000431545
18 *282:B1 *105:29 5.09602e-05
19 *282:B1 *111:12 6.11038e-05
20 *24:6 *79:34 4.34745e-05
21 *24:12 *36:8 1.06175e-05
22 *24:12 *79:34 0.000354122
23 *24:12 *95:23 1.4471e-05
24 *24:12 *100:20 1.14452e-05
25 *24:12 *101:70 1.20966e-05
26 *24:22 *290:A_N 3.85511e-05
27 *24:22 *290:C 1.90658e-05
28 *24:22 *290:D 7.20783e-05
29 *24:22 *295:D1 4.57461e-05
30 *24:22 *79:34 6.57196e-05
31 *24:22 *95:23 2.12347e-06
32 *24:22 *100:20 4.68153e-05
33 *24:22 *101:70 5.64582e-05
34 *24:22 *109:18 9.58714e-05
35 *24:32 *290:D 2.02872e-05
36 *24:32 *89:10 2.04354e-05
37 *24:32 *92:104 9.67842e-05
38 *24:32 *100:10 1.86176e-05
39 *24:32 *100:27 2.12234e-05
40 *24:32 *102:41 0.000357563
41 *24:45 *317:A1 0.00013766
42 *24:45 *33:8 8.25782e-05
43 *24:45 *79:63 0.000769742
44 *24:45 *80:103 2.64616e-05
45 *24:45 *82:10 0
46 *24:45 *98:78 0
47 *24:45 *101:39 0.000112245
48 *24:45 *108:50 0.000502585
49 *24:45 *111:44 2.64616e-05
50 *24:45 *111:95 7.45278e-05
51 *24:61 *299:A2 8.62783e-05
52 *24:61 *104:61 0
53 *24:61 *105:29 0.000394564
54 *24:61 *105:41 6.16531e-05
55 *24:61 *111:12 0.000308286
*RES
1 *280:Y *24:6 23.6214 
2 *24:6 *24:12 19.8057 
3 *24:12 *24:22 25.6886 
4 *24:22 *24:32 36.2557 
5 *24:32 *317:A2 23 
6 *24:22 *24:45 43.0914 
7 *24:45 *320:B1 23 
8 *24:12 *295:A2 38 
9 *24:6 *24:61 22.1879 
10 *24:61 *301:B1 39.0979 
11 *24:61 *282:B1 44.2557 
*END

*D_NET *25 0.00085331
*CONN
*I *282:C1 I *D sky130_fd_sc_hd__a221o_1
*I *281:X O *D sky130_fd_sc_hd__and4bb_1
*CAP
1 *282:C1 0
2 *281:X 0.000199365
3 *25:10 0.000199365
4 *25:10 *94:52 0.000155329
5 *25:10 *104:18 0.000138607
6 *25:10 *110:51 6.30317e-05
7 *25:10 *110:66 9.76132e-05
*RES
1 *281:X *25:10 41.8321 
2 *25:10 *282:C1 38 
*END

*D_NET *26 0.00181282
*CONN
*I *289:B1 I *D sky130_fd_sc_hd__o22a_1
*I *282:X O *D sky130_fd_sc_hd__a221o_1
*CAP
1 *289:B1 0
2 *282:X 0.000459876
3 *26:10 0.000459876
4 *26:10 *301:B2 0.000308039
5 *26:10 *80:26 5.15096e-05
6 *26:10 *80:36 0.000293795
7 *26:10 *105:27 9.48381e-06
8 *26:10 *105:29 3.81554e-05
9 *26:10 *111:12 0.000192087
*RES
1 *282:X *26:10 46.6793 
2 *26:10 *289:B1 38 
*END

*D_NET *27 0.00508071
*CONN
*I *304:B I *D sky130_fd_sc_hd__and2_1
*I *336:A2 I *D sky130_fd_sc_hd__a221o_1
*I *327:B I *D sky130_fd_sc_hd__and2_1
*I *319:B I *D sky130_fd_sc_hd__and2_1
*I *283:X O *D sky130_fd_sc_hd__and3b_1
*CAP
1 *304:B 0
2 *336:A2 0
3 *327:B 9.49298e-06
4 *319:B 0
5 *283:X 0.000315043
6 *27:59 0.00040239
7 *27:42 0.000962499
8 *27:21 0.00072441
9 *27:12 0.000154807
10 *27:10 0.000315043
11 *327:B *373:A 7.40275e-06
12 *27:10 *283:C 0
13 *27:10 *319:A 1.14452e-05
14 *27:10 *327:A 0
15 *27:10 *58:8 3.82852e-05
16 *27:10 *64:10 0.000138718
17 *27:10 *87:10 0.000167443
18 *27:10 *109:91 0
19 *27:21 *373:A 0.000102301
20 *27:21 *109:74 5.3304e-05
21 *27:42 *336:A1 4.06285e-05
22 *27:42 *336:B2 1.28818e-05
23 *27:42 *336:C1 5.56356e-05
24 *27:42 *373:A 9.26355e-05
25 *27:42 *73:10 3.77747e-05
26 *27:42 *79:76 0.000191148
27 *27:42 *90:53 0
28 *27:42 *91:38 0.000139982
29 *27:42 *106:69 7.03766e-05
30 *27:42 *109:70 0.000546934
31 *27:42 *109:74 5.3304e-05
32 *27:42 *110:85 0
33 *27:59 *304:A 0.000144501
34 *27:59 *305:B1 5.27196e-05
35 *27:59 *336:A1 0.000181993
36 *22:56 *27:59 5.76133e-05
*RES
1 *283:X *27:10 43.6964 
2 *27:10 *27:12 15 
3 *27:12 *319:B 23 
4 *27:12 *27:21 3.50071 
5 *27:21 *327:B 23.4971 
6 *27:21 *27:42 43.0966 
7 *27:42 *336:A2 23 
8 *27:42 *27:59 37.307 
9 *27:59 *304:B 23 
*END

*D_NET *28 0.000692417
*CONN
*I *288:C1 I *D sky130_fd_sc_hd__a2111o_1
*I *284:X O *D sky130_fd_sc_hd__and4b_1
*CAP
1 *288:C1 8.38368e-05
2 *284:X 8.88819e-05
3 *28:8 0.000172719
4 *288:C1 *288:B1 4.96717e-05
5 *288:C1 *111:8 6.70361e-05
6 *28:8 *288:A2 3.70187e-05
7 *28:8 *94:109 0.000161121
8 *28:8 *99:36 0
9 *28:8 *111:104 3.21327e-05
*RES
1 *284:X *28:8 40.2579 
2 *28:8 *288:C1 39.5743 
*END

*D_NET *29 0.000763477
*CONN
*I *288:D1 I *D sky130_fd_sc_hd__a2111o_1
*I *285:X O *D sky130_fd_sc_hd__o211a_1
*CAP
1 *288:D1 0
2 *285:X 0.000190295
3 *29:10 0.000190295
4 *29:10 *285:B1 0.000135037
5 *29:10 *81:10 2.60152e-05
6 *29:10 *107:114 8.62876e-05
7 *29:10 *109:39 0.000135547
*RES
1 *285:X *29:10 41.48 
2 *29:10 *288:D1 38 
*END

*D_NET *30 0.00257276
*CONN
*I *288:A2 I *D sky130_fd_sc_hd__a2111o_1
*I *366:A I *D sky130_fd_sc_hd__clkbuf_2
*I *302:A2 I *D sky130_fd_sc_hd__a2111o_1
*I *286:Y O *D sky130_fd_sc_hd__nor3b_1
*CAP
1 *288:A2 0.000247318
2 *366:A 5.64234e-05
3 *302:A2 0
4 *286:Y 0.000284738
5 *30:12 8.30383e-05
6 *30:8 0.000558671
7 *288:A2 *287:C 1.27424e-05
8 *288:A2 *31:8 8.62783e-05
9 *288:A2 *79:12 1.42006e-05
10 *288:A2 *79:18 5.18002e-05
11 *288:A2 *94:109 0.000100533
12 *288:A2 *99:36 0.000110241
13 *366:A *90:6 2.4754e-05
14 *366:A *109:29 7.59794e-05
15 *30:8 *40:10 3.3746e-05
16 *30:8 *79:18 0.000300813
17 *30:8 *98:60 7.81176e-05
18 *30:8 *99:25 0.000319731
19 *30:8 *99:36 0
20 *30:8 *105:49 4.07715e-05
21 *30:12 *90:6 2.93845e-05
22 *30:12 *109:29 2.02872e-05
23 *30:12 *109:39 6.17437e-06
24 *28:8 *288:A2 3.70187e-05
*RES
1 *286:Y *30:8 45.8921 
2 *30:8 *30:12 15.6214 
3 *30:12 *302:A2 23 
4 *30:12 *366:A 24.5743 
5 *30:8 *288:A2 44.4007 
*END

*D_NET *31 0.000627185
*CONN
*I *288:B1 I *D sky130_fd_sc_hd__a2111o_1
*I *287:X O *D sky130_fd_sc_hd__and4b_1
*CAP
1 *288:B1 0.000171157
2 *287:X 4.50565e-05
3 *31:8 0.000216214
4 *288:B1 *111:8 1.79538e-05
5 *31:8 *99:36 4.08537e-05
6 *288:A2 *31:8 8.62783e-05
7 *288:C1 *288:B1 4.96717e-05
*RES
1 *287:X *31:8 39.2014 
2 *31:8 *288:B1 40.0507 
*END

*D_NET *32 0.00084927
*CONN
*I *289:B2 I *D sky130_fd_sc_hd__o22a_1
*I *288:X O *D sky130_fd_sc_hd__a2111o_1
*CAP
1 *289:B2 0.000143401
2 *288:X 5.44519e-05
3 *32:8 0.000197853
4 *289:B2 *284:D 8.06804e-06
5 *289:B2 *285:B1 0
6 *289:B2 *80:70 0.00013501
7 *289:B2 *81:10 9.58714e-05
8 *289:B2 *109:49 6.17437e-06
9 *32:8 *81:10 8.62783e-05
10 *32:8 *104:130 0.000110913
11 *32:8 *107:114 1.12487e-05
*RES
1 *288:X *32:8 39.5536 
2 *32:8 *289:B2 41.0243 
*END

*D_NET *33 0.000540526
*CONN
*I *294:C1 I *D sky130_fd_sc_hd__a221o_1
*I *290:X O *D sky130_fd_sc_hd__and4b_1
*CAP
1 *294:C1 0.000131984
2 *290:X 6.50689e-05
3 *33:8 0.000197053
4 *294:C1 *294:A2 1.96216e-05
5 *294:C1 *294:B1 0
6 *294:C1 *296:B1 0
7 *294:C1 *346:A 2.02517e-05
8 *294:C1 *96:14 0
9 *294:C1 *108:50 1.41129e-05
10 *33:8 *79:46 9.85586e-06
11 *33:8 *82:10 0
12 *24:45 *33:8 8.25782e-05
*RES
1 *290:X *33:8 39.2014 
2 *33:8 *294:C1 39.9471 
*END

*D_NET *34 0.00033888
*CONN
*I *295:B1 I *D sky130_fd_sc_hd__a2111o_1
*I *291:X O *D sky130_fd_sc_hd__and4b_1
*CAP
1 *295:B1 0
2 *291:X 0.000108273
3 *34:10 0.000108273
4 *34:10 *348:A 5.67058e-05
5 *34:10 *80:48 2.99682e-05
6 *34:10 *101:70 3.56604e-05
*RES
1 *291:X *34:10 39.8229 
2 *34:10 *295:B1 38 
*END

*D_NET *35 0.00115057
*CONN
*I *295:C1 I *D sky130_fd_sc_hd__a2111o_1
*I *292:X O *D sky130_fd_sc_hd__o211a_1
*CAP
1 *295:C1 0
2 *292:X 0.000389873
3 *35:10 0.000389873
4 *35:10 *36:8 0.000133682
5 *35:10 *90:6 0.000137651
6 *35:10 *94:29 9.35355e-05
7 *35:10 *98:10 0
8 *35:10 *98:78 0
9 *35:10 *101:70 5.95625e-06
*RES
1 *292:X *35:10 44.6493 
2 *35:10 *295:C1 38 
*END

*D_NET *36 0.000550626
*CONN
*I *295:D1 I *D sky130_fd_sc_hd__a2111o_1
*I *293:X O *D sky130_fd_sc_hd__and4bb_1
*CAP
1 *295:D1 3.33195e-05
2 *293:X 8.92147e-05
3 *36:8 0.000122534
4 *295:D1 *79:34 9.64943e-05
5 *36:8 *94:29 1.14452e-05
6 *36:8 *95:23 0
7 *36:8 *101:70 7.57281e-06
8 *24:12 *36:8 1.06175e-05
9 *24:22 *295:D1 4.57461e-05
10 *35:10 *36:8 0.000133682
*RES
1 *293:X *36:8 39.9057 
2 *36:8 *295:D1 39.0979 
*END

*D_NET *37 0.000384085
*CONN
*I *296:B1 I *D sky130_fd_sc_hd__o22a_1
*I *294:X O *D sky130_fd_sc_hd__a221o_1
*CAP
1 *296:B1 8.4544e-05
2 *294:X 8.4544e-05
3 *296:B1 *294:B1 0.000140281
4 *296:B1 *296:A1 2.18409e-05
5 *296:B1 *82:10 2.93335e-05
6 *296:B1 *98:16 2.35413e-05
7 *294:C1 *296:B1 0
*RES
1 *294:X *296:B1 48.4236 
*END

*D_NET *38 0.000472491
*CONN
*I *296:B2 I *D sky130_fd_sc_hd__o22a_1
*I *295:X O *D sky130_fd_sc_hd__a2111o_1
*CAP
1 *296:B2 0
2 *295:X 0.000133302
3 *38:10 0.000133302
4 *38:10 *79:34 5.79559e-05
5 *38:10 *98:10 8.62876e-05
6 *38:10 *98:78 6.16439e-05
*RES
1 *295:X *38:10 40.5271 
2 *38:10 *296:B2 38 
*END

*D_NET *39 0.00195389
*CONN
*I *301:C1 I *D sky130_fd_sc_hd__a221o_1
*I *297:X O *D sky130_fd_sc_hd__and4b_1
*CAP
1 *301:C1 1.82443e-05
2 *297:X 0.000845298
3 *39:14 0.000863543
4 *301:C1 *80:36 5.04995e-05
5 *301:C1 *111:12 4.75704e-05
6 *39:14 *94:52 5.04402e-05
7 *39:14 *106:65 2.49911e-05
8 *39:14 *108:57 5.3304e-05
*RES
1 *297:X *39:14 48.4582 
2 *39:14 *301:C1 46.6732 
*END

*D_NET *40 0.00137237
*CONN
*I *302:B1 I *D sky130_fd_sc_hd__a2111o_1
*I *298:X O *D sky130_fd_sc_hd__and4b_1
*CAP
1 *302:B1 0
2 *298:X 0.00034994
3 *40:10 0.00034994
4 *40:10 *41:10 0.000114092
5 *40:10 *79:18 0.000222123
6 *40:10 *79:34 8.4047e-05
7 *40:10 *94:103 4.38808e-05
8 *40:10 *95:104 0.000139346
9 *40:10 *105:49 2.35426e-05
10 *40:10 *109:18 1.17102e-05
11 *30:8 *40:10 3.3746e-05
*RES
1 *298:X *40:10 45.0221 
2 *40:10 *302:B1 38 
*END

*D_NET *41 0.000719881
*CONN
*I *302:C1 I *D sky130_fd_sc_hd__a2111o_1
*I *299:X O *D sky130_fd_sc_hd__o211a_1
*CAP
1 *302:C1 0
2 *299:X 0.000166538
3 *41:10 0.000166538
4 *41:10 *300:D 0.000137651
5 *41:10 *94:103 0.000111852
6 *41:10 *105:41 2.32101e-05
7 *40:10 *41:10 0.000114092
*RES
1 *299:X *41:10 41.6043 
2 *41:10 *302:C1 38 
*END

*D_NET *42 0.000521122
*CONN
*I *302:D1 I *D sky130_fd_sc_hd__a2111o_1
*I *300:X O *D sky130_fd_sc_hd__and4bb_1
*CAP
1 *302:D1 8.81957e-05
2 *300:X 3.90016e-05
3 *42:8 0.000127197
4 *302:D1 *90:6 9.41704e-05
5 *42:8 *287:B 8.62783e-05
6 *42:8 *80:36 8.62783e-05
*RES
1 *300:X *42:8 39.2014 
2 *42:8 *302:D1 39.0979 
*END

*D_NET *43 0.000401789
*CONN
*I *303:B1 I *D sky130_fd_sc_hd__o22a_1
*I *301:X O *D sky130_fd_sc_hd__a221o_1
*CAP
1 *303:B1 0
2 *301:X 0.000138209
3 *43:10 0.000138209
4 *43:10 *301:A1 5.50049e-05
5 *43:10 *95:29 7.03663e-05
6 *296:A2 *43:10 0
7 *22:14 *43:10 0
*RES
1 *301:X *43:10 40.5271 
2 *43:10 *303:B1 38 
*END

*D_NET *44 0.00103576
*CONN
*I *303:B2 I *D sky130_fd_sc_hd__o22a_1
*I *302:X O *D sky130_fd_sc_hd__a2111o_1
*CAP
1 *303:B2 0
2 *302:X 0.000228665
3 *44:8 0.000228665
4 *44:8 *83:10 8.23659e-05
5 *44:8 *90:6 0.000475814
6 *303:A2 *44:8 2.02517e-05
*RES
1 *302:X *44:8 28.8829 
2 *44:8 *303:B2 23 
*END

*D_NET *45 0.000927003
*CONN
*I *311:A1 I *D sky130_fd_sc_hd__o32a_1
*I *304:X O *D sky130_fd_sc_hd__and2_1
*CAP
1 *311:A1 0
2 *304:X 0.000305367
3 *45:10 0.000305367
4 *45:10 *91:8 0.000138718
5 *45:10 *95:29 6.6869e-05
6 *22:6 *45:10 9.84851e-05
7 *22:56 *45:10 1.21972e-05
*RES
1 *304:X *45:10 42.9093 
2 *45:10 *311:A1 38 
*END

*D_NET *46 0.000474917
*CONN
*I *311:A2 I *D sky130_fd_sc_hd__o32a_1
*I *305:X O *D sky130_fd_sc_hd__a22o_1
*CAP
1 *311:A2 0.000134593
2 *305:X 0.000134593
3 *311:A2 *311:A3 5.50049e-05
4 *311:A2 *311:B2 4.2573e-05
5 *311:A2 *108:105 9.58714e-05
6 *311:A2 *109:49 1.22822e-05
*RES
1 *305:X *311:A2 48.5271 
*END

*D_NET *47 0.000492666
*CONN
*I *310:A I *D sky130_fd_sc_hd__or4_1
*I *306:X O *D sky130_fd_sc_hd__and4bb_1
*CAP
1 *310:A 0
2 *306:X 0.000157237
3 *47:10 0.000157237
4 *47:10 *307:A2 0
5 *47:10 *48:10 8.94487e-05
6 *47:10 *51:10 8.62876e-05
7 *47:10 *99:62 2.45549e-06
8 *17:14 *47:10 0
*RES
1 *306:X *47:10 40.8793 
2 *47:10 *310:A 38 
*END

*D_NET *48 0.000587688
*CONN
*I *310:B I *D sky130_fd_sc_hd__or4_1
*I *307:X O *D sky130_fd_sc_hd__o211a_1
*CAP
1 *310:B 0
2 *307:X 0.000179296
3 *48:10 0.000179296
4 *48:10 *307:A2 0
5 *48:10 *49:10 0.000139647
6 *47:10 *48:10 8.94487e-05
*RES
1 *307:X *48:10 41.5836 
2 *48:10 *310:B 38 
*END

*D_NET *49 0.00107206
*CONN
*I *310:C I *D sky130_fd_sc_hd__or4_1
*I *308:X O *D sky130_fd_sc_hd__and4b_1
*CAP
1 *310:C 3.69236e-05
2 *308:X 0.000285314
3 *49:10 0.000322237
4 *49:10 *307:A1 0.000225393
5 *49:10 *99:92 3.31683e-05
6 *17:14 *310:C 2.93747e-05
7 *48:10 *49:10 0.000139647
*RES
1 *308:X *49:10 42.9093 
2 *49:10 *310:C 38.6214 
*END

*D_NET *50 7.7648e-05
*CONN
*I *310:D I *D sky130_fd_sc_hd__or4_1
*I *309:X O *D sky130_fd_sc_hd__and4bb_1
*CAP
1 *310:D 2.268e-05
2 *309:X 2.268e-05
3 *17:14 *310:D 3.22879e-05
*RES
1 *309:X *310:D 46.6214 
*END

*D_NET *51 0.00265023
*CONN
*I *311:A3 I *D sky130_fd_sc_hd__o32a_1
*I *310:X O *D sky130_fd_sc_hd__or4_1
*CAP
1 *311:A3 0.000572286
2 *310:X 0.000243972
3 *51:10 0.000816258
4 *311:A3 *79:8 0.000268074
5 *311:A3 *109:49 0.000283831
6 *51:10 *307:A2 0
7 *51:10 *99:62 0.000195248
8 *311:A2 *311:A3 5.50049e-05
9 *356:A *51:10 3.70187e-05
10 *17:14 *51:10 9.22523e-05
11 *47:10 *51:10 8.62876e-05
*RES
1 *310:X *51:10 43.6964 
2 *51:10 *311:A3 49.5793 
*END

*D_NET *52 0.00117312
*CONN
*I *316:C1 I *D sky130_fd_sc_hd__a221o_1
*I *312:X O *D sky130_fd_sc_hd__and4b_1
*CAP
1 *316:C1 0
2 *312:X 0.000377111
3 *52:10 0.000377111
4 *52:10 *106:44 6.76406e-05
5 *52:10 *107:44 0.00021677
6 *52:10 *111:95 0.00013449
*RES
1 *312:X *52:10 43.3857 
2 *52:10 *316:C1 38 
*END

*D_NET *53 0.000438858
*CONN
*I *317:B1 I *D sky130_fd_sc_hd__a2111o_1
*I *313:X O *D sky130_fd_sc_hd__and4bb_1
*CAP
1 *317:B1 0.000127166
2 *313:X 0.000127166
3 *317:B1 *102:41 0.000184527
*RES
1 *313:X *317:B1 48.0507 
*END

*D_NET *54 0.000483967
*CONN
*I *317:C1 I *D sky130_fd_sc_hd__a2111o_1
*I *314:X O *D sky130_fd_sc_hd__o211a_1
*CAP
1 *317:C1 8.77017e-05
2 *314:X 8.77017e-05
3 *317:C1 *314:A2 3.71369e-05
4 *317:C1 *317:D1 2.16415e-05
5 *317:C1 *57:10 2.5086e-05
6 *317:C1 *102:41 0.000224699
*RES
1 *314:X *317:C1 49.1693 
*END

*D_NET *55 0.00108147
*CONN
*I *317:D1 I *D sky130_fd_sc_hd__a2111o_1
*I *315:X O *D sky130_fd_sc_hd__and4b_1
*CAP
1 *317:D1 4.29738e-05
2 *315:X 0.000361127
3 *55:14 0.000404101
4 *317:D1 *57:10 5.50106e-05
5 *55:14 *80:103 1.01436e-05
6 *55:14 *92:104 2.76611e-06
7 *55:14 *100:10 0
8 *55:14 *100:27 0
9 *55:14 *108:8 0.000143655
10 *55:14 *108:25 4.00481e-05
11 *317:C1 *317:D1 2.16415e-05
*RES
1 *315:X *55:14 42.9507 
2 *55:14 *317:D1 39.1186 
*END

*D_NET *56 0.00104852
*CONN
*I *318:B1 I *D sky130_fd_sc_hd__o22a_1
*I *316:X O *D sky130_fd_sc_hd__a221o_1
*CAP
1 *318:B1 0
2 *316:X 0.000254111
3 *56:12 0.000254111
4 *56:12 *316:A2 6.17437e-06