*SPEF "ieee 1481-1999"
*DESIGN "alu"
*DATE "00:54:24 Saturday May 16, 2026"
*VENDOR "The OpenROAD Project"
*PROGRAM "OpenROAD"
*VERSION "v2.0-16235-gedf00dff9"
*DESIGN_FLOW "NAME_SCOPE LOCAL" "PIN_CAP NONE"
*DIVIDER /
*DELIMITER :
*BUS_DELIMITER []
*T_UNIT 1 NS
*C_UNIT 1 PF
*R_UNIT 1 OHM
*L_UNIT 1 HENRY

*NAME_MAP
*3 data1[0]
*4 data1[1]
*5 data1[2]
*6 data1[3]
*7 data1[4]
*8 data1[5]
*9 data1[6]
*10 data1[7]
*11 data2[0]
*12 data2[1]
*13 data2[2]
*14 data2[3]
*15 data2[4]
*16 data2[5]
*17 data2[6]
*18 data2[7]
*19 op[0]
*20 op[1]
*21 op[2]
*22 res[0]
*23 res[1]
*24 res[2]
*25 res[3]
*26 res[4]
*27 res[5]
*28 res[6]
*29 res[7]
*30 z
*31 _000_
*32 _001_
*33 _002_
*34 _003_
*35 _004_
*36 _005_
*37 _006_
*38 _007_
*39 _008_
*40 _009_
*41 _010_
*42 _011_
*43 _012_
*44 _013_
*45 _014_
*46 _015_
*47 _016_
*48 _017_
*49 _018_
*50 _019_
*51 _020_
*52 _021_
*53 _022_
*54 _023_
*55 _024_
*56 _025_
*57 _026_
*58 _027_
*59 _028_
*60 _029_
*61 _030_
*62 _031_
*63 _032_
*64 _033_
*65 _034_
*66 _035_
*67 _036_
*68 _037_
*69 _038_
*70 _039_
*71 _040_
*72 _041_
*73 _042_
*74 _043_
*75 _044_
*76 _045_
*77 _046_
*78 _047_
*79 _048_
*80 _049_
*81 _050_
*82 _051_
*83 _052_
*84 _053_
*85 _054_
*86 _055_
*87 _056_
*88 _057_
*89 _058_
*90 _059_
*91 _060_
*92 _061_
*93 _062_
*94 _063_
*95 _064_
*96 _065_
*97 _066_
*98 _067_
*99 _068_
*100 _069_
*101 _070_
*102 _071_
*103 _072_
*104 _073_
*105 _074_
*106 _075_
*107 _076_
*108 _077_
*109 _078_
*110 _079_
*111 _080_
*112 _081_
*113 _082_
*114 _083_
*115 _084_
*116 _085_
*117 _086_
*118 _087_
*119 _088_
*120 _089_
*121 _090_
*122 _091_
*123 _092_
*124 _093_
*125 _094_
*126 _095_
*127 _096_
*128 _097_
*129 _098_
*130 _099_
*131 _100_
*132 _101_
*133 _102_
*134 _103_
*135 _104_
*136 _105_
*137 _106_
*138 _107_
*139 _108_
*140 _109_
*141 _110_
*142 _111_
*143 _112_
*144 _113_
*145 _114_
*146 _115_
*147 _116_
*148 _117_
*149 _118_
*150 _119_
*151 _120_
*152 _121_
*153 _122_
*154 _123_
*155 _124_
*156 _125_
*157 net1
*158 net10
*159 net11
*160 net12
*161 net13
*162 net14
*163 net15
*164 net16
*165 net17
*166 net18
*167 net19
*168 net2
*169 net20
*170 net21
*171 net22
*172 net23
*173 net24
*174 net25
*175 net26
*176 net27
*177 net28
*178 net29
*179 net3
*180 net30
*181 net31
*182 net32
*183 net33
*184 net34
*185 net35
*186 net36
*187 net37
*188 net38
*189 net39
*190 net4
*191 net40
*192 net41
*193 net42
*194 net43
*195 net5
*196 net6
*197 net7
*198 net8
*199 net9
*200 FILLER_0_100
*201 FILLER_0_103
*202 FILLER_0_12
*203 FILLER_0_15
*204 FILLER_0_18
*205 FILLER_0_21
*206 FILLER_0_27
*207 FILLER_0_29
*208 FILLER_0_3
*209 FILLER_0_32
*210 FILLER_0_41
*211 FILLER_0_44
*212 FILLER_0_47
*213 FILLER_0_50
*214 FILLER_0_53
*215 FILLER_0_57
*216 FILLER_0_6
*217 FILLER_0_60
*218 FILLER_0_63
*219 FILLER_0_66
*220 FILLER_0_69
*221 FILLER_0_72
*222 FILLER_0_75
*223 FILLER_0_78
*224 FILLER_0_81
*225 FILLER_0_85
*226 FILLER_0_88
*227 FILLER_0_9
*228 FILLER_0_91
*229 FILLER_0_94
*230 FILLER_0_97
*231 FILLER_10_11
*232 FILLER_10_26
*233 FILLER_10_29
*234 FILLER_10_32
*235 FILLER_10_35
*236 FILLER_10_38
*237 FILLER_10_41
*238 FILLER_10_44
*239 FILLER_10_60
*240 FILLER_10_63
*241 FILLER_10_66
*242 FILLER_10_69
*243 FILLER_10_85
*244 FILLER_10_88
*245 FILLER_10_91
*246 FILLER_11_12
*247 FILLER_11_15
*248 FILLER_11_28
*249 FILLER_11_31
*250 FILLER_11_43
*251 FILLER_11_46
*252 FILLER_11_57
*253 FILLER_11_68
*254 FILLER_11_71
*255 FILLER_11_81
*256 FILLER_11_84
*257 FILLER_12_103
*258 FILLER_12_22
*259 FILLER_12_25
*260 FILLER_12_29
*261 FILLER_12_3
*262 FILLER_12_32
*263 FILLER_12_35
*264 FILLER_12_38
*265 FILLER_12_41
*266 FILLER_12_44
*267 FILLER_12_47
*268 FILLER_12_50
*269 FILLER_12_53
*270 FILLER_12_56
*271 FILLER_12_59
*272 FILLER_12_63
*273 FILLER_12_66
*274 FILLER_12_69
*275 FILLER_12_82
*276 FILLER_12_85
*277 FILLER_13_24
*278 FILLER_13_27
*279 FILLER_13_3
*280 FILLER_13_54
*281 FILLER_13_57
*282 FILLER_13_6
*283 FILLER_13_60
*284 FILLER_13_63
*285 FILLER_13_66
*286 FILLER_13_76
*287 FILLER_13_79
*288 FILLER_13_82
*289 FILLER_13_85
*290 FILLER_13_88
*291 FILLER_14_15
*292 FILLER_14_18
*293 FILLER_14_21
*294 FILLER_14_24
*295 FILLER_14_27
*296 FILLER_14_29
*297 FILLER_14_3
*298 FILLER_14_32
*299 FILLER_14_50
*300 FILLER_14_53
*301 FILLER_14_56
*302 FILLER_14_6
*303 FILLER_14_72
*304 FILLER_14_75
*305 FILLER_14_78
*306 FILLER_14_81
*307 FILLER_14_85
*308 FILLER_14_88
*309 FILLER_14_9
*310 FILLER_14_91
*311 FILLER_15_12
*312 FILLER_15_23
*313 FILLER_15_26
*314 FILLER_15_29
*315 FILLER_15_3
*316 FILLER_15_57
*317 FILLER_15_85
*318 FILLER_15_88
*319 FILLER_15_97
*320 FILLER_16_104
*321 FILLER_16_25
*322 FILLER_16_3
*323 FILLER_16_48
*324 FILLER_16_51
*325 FILLER_16_54
*326 FILLER_17_101
*327 FILLER_17_104
*328 FILLER_17_16
*329 FILLER_17_23
*330 FILLER_17_29
*331 FILLER_17_3
*332 FILLER_17_48
*333 FILLER_17_51
*334 FILLER_17_55
*335 FILLER_17_57
*336 FILLER_17_6
*337 FILLER_17_63
*338 FILLER_17_66
*339 FILLER_17_69
*340 FILLER_17_72
*341 FILLER_17_77
*342 FILLER_17_83
*343 FILLER_17_85
*344 FILLER_17_9
*345 FILLER_17_95
*346 FILLER_17_98
*347 FILLER_1_100
*348 FILLER_1_103
*349 FILLER_1_12
*350 FILLER_1_15
*351 FILLER_1_18
*352 FILLER_1_21
*353 FILLER_1_24
*354 FILLER_1_27
*355 FILLER_1_3
*356 FILLER_1_30
*357 FILLER_1_41
*358 FILLER_1_6
*359 FILLER_1_61
*360 FILLER_1_64
*361 FILLER_1_67
*362 FILLER_1_70
*363 FILLER_1_73
*364 FILLER_1_76
*365 FILLER_1_79
*366 FILLER_1_82
*367 FILLER_1_85
*368 FILLER_1_88
*369 FILLER_1_9
*370 FILLER_1_91
*371 FILLER_1_94
*372 FILLER_1_97
*373 FILLER_2_100
*374 FILLER_2_12
*375 FILLER_2_15
*376 FILLER_2_18
*377 FILLER_2_21
*378 FILLER_2_24
*379 FILLER_2_27
*380 FILLER_2_3
*381 FILLER_2_49
*382 FILLER_2_58
*383 FILLER_2_6
*384 FILLER_2_71
*385 FILLER_2_74
*386 FILLER_2_82
*387 FILLER_2_85
*388 FILLER_2_88
*389 FILLER_2_9
*390 FILLER_2_91
*391 FILLER_2_94
*392 FILLER_2_97
*393 FILLER_3_100
*394 FILLER_3_12
*395 FILLER_3_15
*396 FILLER_3_18
*397 FILLER_3_21
*398 FILLER_3_24
*399 FILLER_3_27
*400 FILLER_3_3
*401 FILLER_3_30
*402 FILLER_3_45
*403 FILLER_3_57
*404 FILLER_3_6
*405 FILLER_3_75
*406 FILLER_3_9
*407 FILLER_3_92
*408 FILLER_4_12
*409 FILLER_4_15
*410 FILLER_4_18
*411 FILLER_4_21
*412 FILLER_4_24
*413 FILLER_4_27
*414 FILLER_4_29
*415 FILLER_4_3
*416 FILLER_4_52
*417 FILLER_4_6
*418 FILLER_4_68
*419 FILLER_4_71
*420 FILLER_4_74
*421 FILLER_4_82
*422 FILLER_4_9
*423 FILLER_4_93
*424 FILLER_5_12
*425 FILLER_5_15
*426 FILLER_5_28
*427 FILLER_5_31
*428 FILLER_5_34
*429 FILLER_5_50
*430 FILLER_5_53
*431 FILLER_5_6
*432 FILLER_5_65
*433 FILLER_5_68
*434 FILLER_5_71
*435 FILLER_5_74
*436 FILLER_5_77
*437 FILLER_5_9
*438 FILLER_5_96
*439 FILLER_6_34
*440 FILLER_6_37
*441 FILLER_6_43
*442 FILLER_6_46
*443 FILLER_6_49
*444 FILLER_6_52
*445 FILLER_6_55
*446 FILLER_6_6
*447 FILLER_6_65
*448 FILLER_6_73
*449 FILLER_6_76
*450 FILLER_6_79
*451 FILLER_6_82
*452 FILLER_6_9
*453 FILLER_6_92
*454 FILLER_7_102
*455 FILLER_7_12
*456 FILLER_7_20
*457 FILLER_7_26
*458 FILLER_7_29
*459 FILLER_7_32
*460 FILLER_7_35
*461 FILLER_7_46
*462 FILLER_7_57
*463 FILLER_7_67
*464 FILLER_7_70
*465 FILLER_8_100
*466 FILLER_8_103
*467 FILLER_8_15
*468 FILLER_8_18
*469 FILLER_8_21
*470 FILLER_8_24
*471 FILLER_8_27
*472 FILLER_8_36
*473 FILLER_8_49
*474 FILLER_8_52
*475 FILLER_8_60
*476 FILLER_8_63
*477 FILLER_8_66
*478 FILLER_8_69
*479 FILLER_8_72
*480 FILLER_8_75
*481 FILLER_8_78
*482 FILLER_8_81
*483 FILLER_8_97
*484 FILLER_9_27
*485 FILLER_9_3
*486 FILLER_9_30
*487 FILLER_9_48
*488 FILLER_9_65
*489 FILLER_9_68
*490 FILLER_9_71
*491 FILLER_9_74
*492 FILLER_9_97
*493 PHY_EDGE_ROW_0_Left_18
*494 PHY_EDGE_ROW_0_Right_0
*495 PHY_EDGE_ROW_10_Left_28
*496 PHY_EDGE_ROW_10_Right_10
*497 PHY_EDGE_ROW_11_Left_29
*498 PHY_EDGE_ROW_11_Right_11
*499 PHY_EDGE_ROW_12_Left_30
*500 PHY_EDGE_ROW_12_Right_12
*501 PHY_EDGE_ROW_13_Left_31
*502 PHY_EDGE_ROW_13_Right_13
*503 PHY_EDGE_ROW_14_Left_32
*504 PHY_EDGE_ROW_14_Right_14
*505 PHY_EDGE_ROW_15_Left_33
*506 PHY_EDGE_ROW_15_Right_15
*507 PHY_EDGE_ROW_16_Left_34
*508 PHY_EDGE_ROW_16_Right_16
*509 PHY_EDGE_ROW_17_Left_35
*510 PHY_EDGE_ROW_17_Right_17
*511 PHY_EDGE_ROW_1_Left_19
*512 PHY_EDGE_ROW_1_Right_1
*513 PHY_EDGE_ROW_2_Left_20
*514 PHY_EDGE_ROW_2_Right_2
*515 PHY_EDGE_ROW_3_Left_21
*516 PHY_EDGE_ROW_3_Right_3
*517 PHY_EDGE_ROW_4_Left_22
*518 PHY_EDGE_ROW_4_Right_4
*519 PHY_EDGE_ROW_5_Left_23
*520 PHY_EDGE_ROW_5_Right_5
*521 PHY_EDGE_ROW_6_Left_24
*522 PHY_EDGE_ROW_6_Right_6
*523 PHY_EDGE_ROW_7_Left_25
*524 PHY_EDGE_ROW_7_Right_7
*525 PHY_EDGE_ROW_8_Left_26
*526 PHY_EDGE_ROW_8_Right_8
*527 PHY_EDGE_ROW_9_Left_27
*528 PHY_EDGE_ROW_9_Right_9
*529 TAP_TAPCELL_ROW_0_36
*530 TAP_TAPCELL_ROW_0_37
*531 TAP_TAPCELL_ROW_0_38
*532 TAP_TAPCELL_ROW_10_52
*533 TAP_TAPCELL_ROW_10_53
*534 TAP_TAPCELL_ROW_11_54
*535 TAP_TAPCELL_ROW_12_55
*536 TAP_TAPCELL_ROW_12_56
*537 TAP_TAPCELL_ROW_13_57
*538 TAP_TAPCELL_ROW_14_58
*539 TAP_TAPCELL_ROW_14_59
*540 TAP_TAPCELL_ROW_15_60
*541 TAP_TAPCELL_ROW_16_61
*542 TAP_TAPCELL_ROW_16_62
*543 TAP_TAPCELL_ROW_17_63
*544 TAP_TAPCELL_ROW_17_64
*545 TAP_TAPCELL_ROW_17_65
*546 TAP_TAPCELL_ROW_1_39
*547 TAP_TAPCELL_ROW_2_40
*548 TAP_TAPCELL_ROW_2_41
*549 TAP_TAPCELL_ROW_3_42
*550 TAP_TAPCELL_ROW_4_43
*551 TAP_TAPCELL_ROW_4_44
*552 TAP_TAPCELL_ROW_5_45
*553 TAP_TAPCELL_ROW_6_46
*554 TAP_TAPCELL_ROW_6_47
*555 TAP_TAPCELL_ROW_7_48
*556 TAP_TAPCELL_ROW_8_49
*557 TAP_TAPCELL_ROW_8_50
*558 TAP_TAPCELL_ROW_9_51
*559 _126_
*560 _127_
*561 _128_
*562 _129_
*563 _130_
*564 _131_
*565 _132_
*566 _133_
*567 _134_
*568 _135_
*569 _136_
*570 _137_
*571 _138_
*572 _139_
*573 _140_
*574 _141_
*575 _142_
*576 _143_
*577 _144_
*578 _145_
*579 _146_
*580 _147_
*581 _148_
*582 _149_
*583 _150_
*584 _151_
*585 _152_
*586 _153_
*587 _154_
*588 _155_
*589 _156_
*590 _157_
*591 _158_
*592 _159_
*593 _160_
*594 _161_
*595 _162_
*596 _163_
*597 _164_
*598 _165_
*599 _166_
*600 _167_
*601 _168_
*602 _169_
*603 _170_
*604 _171_
*605 _172_
*606 _173_
*607 _174_
*608 _175_
*609 _176_
*610 _177_
*611 _178_
*612 _179_
*613 _180_
*614 _181_
*615 _182_
*616 _183_
*617 _184_
*618 _185_
*619 _186_
*620 _187_
*621 _188_
*622 _189_
*623 _190_
*624 _191_
*625 _192_
*626 _193_
*627 _194_
*628 _195_
*629 _196_
*630 _197_
*631 _198_
*632 _199_
*633 _200_
*634 _201_
*635 _202_
*636 _203_
*637 _204_
*638 _205_
*639 _206_
*640 _207_
*641 _208_
*642 _209_
*643 _210_
*644 _211_
*645 _212_
*646 _213_
*647 _214_
*648 _215_
*649 _216_
*650 _217_
*651 _218_
*652 _219_
*653 _220_
*654 _221_
*655 _222_
*656 _223_
*657 _224_
*658 _225_
*659 _226_
*660 _227_
*661 _228_
*662 _229_
*663 _230_
*664 _231_
*665 _232_
*666 _233_
*667 _234_
*668 _235_
*669 _236_
*670 _237_
*671 _238_
*672 _239_
*673 _240_
*674 _241_
*675 _242_
*676 _243_
*677 _244_
*678 _245_
*679 _246_
*680 _247_
*681 _248_
*682 _249_
*683 _250_
*684 _251_
*685 _252_
*686 _253_
*687 _254_
*688 _255_
*689 _256_
*690 _257_
*691 _258_
*692 _259_
*693 _260_
*694 fanout30
*695 fanout34
*696 fanout35
*697 fanout36
*698 fanout37
*699 fanout38
*700 fanout39
*701 fanout40
*702 fanout41
*703 fanout42
*704 fanout43
*705 input1
*706 input10
*707 input11
*708 input12
*709 input13
*710 input14
*711 input15
*712 input16
*713 input17
*714 input18
*715 input19
*716 input2
*717 input3
*718 input4
*719 input5
*720 input6
*721 input7
*722 input8
*723 input9
*724 max_cap29
*725 max_cap31
*726 max_cap32
*727 max_cap33
*728 output20
*729 output21
*730 output22
*731 output23
*732 output24
*733 output25
*734 output26
*735 output27
*736 output28

*PORTS
data1[0] I
data1[1] I
data1[2] I
data1[3] I
data1[4] I
data1[5] I
data1[6] I
data1[7] I
data2[0] I
data2[1] I
data2[2] I
data2[3] I
data2[4] I
data2[5] I
data2[6] I
data2[7] I
op[0] I
op[1] I
op[2] I
res[0] O
res[1] O
res[2] O
res[3] O
res[4] O
res[5] O
res[6] O
res[7] O
z O

*D_NET *3 0.00103272
*CONN
*P data1[0] I
*I *705:A I *D sky130_fd_sc_hd__buf_1
*CAP
1 data1[0] 0.000271843
2 *705:A 0.000271843
3 *705:A *706:A 8.06147e-05
4 *705:A *720:A 5.58962e-05
5 *705:A *723:A 0
6 *705:A *186:111 0.000210966
7 *705:A *190:97 6.75877e-05
8 *705:A *194:25 7.39745e-05
*RES
1 data1[0] *705:A 49.8015 
*END

*D_NET *4 0.0011998
*CONN
*P data1[1] I
*I *716:A I *D sky130_fd_sc_hd__clkbuf_1
*CAP
1 data1[1] 0.000368107
2 *716:A 0.000368107
3 *716:A *668:B 0.000154856
4 *716:A *721:A 7.2485e-05
5 *716:A *722:A 8.39969e-05
6 *716:A *186:27 0.00015225
*RES
1 data1[1] *716:A 49.1831 
*END

*D_NET *5 0.000991885
*CONN
*P data1[2] I
*I *717:A I *D sky130_fd_sc_hd__clkbuf_1
*CAP
1 data1[2] 0.000316767
2 *717:A 0.000316767
3 *717:A res[0] 8.73764e-05
4 *717:A res[1] 0
5 *717:A *718:A 8.06147e-05
6 *717:A *110:64 0.000158008
7 *717:A *190:8 3.23515e-05
*RES
1 data1[2] *717:A 49.1831 
*END

*D_NET *6 0.000626034
*CONN
*P data1[3] I
*I *718:A I *D sky130_fd_sc_hd__buf_2
*CAP
1 data1[3] 0.00027271
2 *718:A 0.00027271
3 *718:A *110:64 0
4 *717:A *718:A 8.06147e-05
*RES
1 data1[3] *718:A 48.4875 
*END

*D_NET *7 0.00046824
*CONN
*P data1[4] I
*I *719:A I *D sky130_fd_sc_hd__buf_2
*CAP
1 data1[4] 0.000193813
2 *719:A 0.000193813
3 *719:A *721:A 8.06147e-05
*RES
1 data1[4] *719:A 47.0789 
*END

*D_NET *8 0.000901761
*CONN
*P data1[5] I
*I *720:A I *D sky130_fd_sc_hd__buf_2
*CAP
1 data1[5] 0.000222288
2 *720:A 0.000222288
3 *720:A *722:A 7.05506e-05
4 *720:A *186:111 0.000106236
5 *720:A *190:97 0.000224503
6 *705:A *720:A 5.58962e-05
*RES
1 data1[5] *720:A 49.5439 
*END

*D_NET *9 0.000496762
*CONN
*P data1[6] I
*I *721:A I *D sky130_fd_sc_hd__clkbuf_1
*CAP
1 data1[6] 0.000160157
2 *721:A 0.000160157
3 *721:A *182:57 0
4 *721:A *195:167 2.33476e-05
5 *716:A *721:A 7.2485e-05
6 *719:A *721:A 8.06147e-05
*RES
1 data1[6] *721:A 47.0789 
*END

*D_NET *10 0.000784383
*CONN
*P data1[7] I
*I *722:A I *D sky130_fd_sc_hd__clkbuf_2
*CAP
1 data1[7] 0.000248746
2 *722:A 0.000248746
3 *722:A *186:27 7.51003e-05
4 *722:A *190:97 0
5 *722:A *195:167 4.70985e-05
6 *722:A *197:8 1.01436e-05
7 *716:A *722:A 8.39969e-05
8 *720:A *722:A 7.05506e-05
*RES
1 data1[7] *722:A 48.2212 
*END

*D_NET *11 0.000825879
*CONN
*P data2[0] I
*I *723:A I *D sky130_fd_sc_hd__clkbuf_2
*CAP
1 data2[0] 0.000255583
2 *723:A 0.000255583
3 *723:A res[1] 7.84616e-05
4 *723:A *706:A 7.82427e-05
5 *723:A *186:126 0.000158008
6 *705:A *723:A 0
*RES
1 data2[0] *723:A 48.9255 
*END

*D_NET *12 0.000537947
*CONN
*P data2[1] I
*I *706:A I *D sky130_fd_sc_hd__buf_1
*CAP
1 data2[1] 0.000170176
2 *706:A 0.000170176
3 *706:A *186:111 3.8737e-05
4 *705:A *706:A 8.06147e-05
5 *723:A *706:A 7.82427e-05
*RES
1 data2[1] *706:A 47.7832 
*END

*D_NET *13 0.000984574
*CONN
*P data2[2] I
*I *707:A I *D sky130_fd_sc_hd__buf_1
*CAP
1 data2[2] 0.000492287
2 *707:A 0.000492287
3 *707:A res[2] 0
4 *707:A *678:A2 0
*RES
1 data2[2] *707:A 48.73 
*END

*D_NET *14 0.000981571
*CONN
*P data2[3] I
*I *708:A I *D sky130_fd_sc_hd__buf_1
*CAP
1 data2[3] 0.000490785
2 *708:A 0.000490785
3 *708:A res[3] 0
4 *708:A *709:A 0
5 *708:A *731:A 0
*RES
1 data2[3] *708:A 48.73 
*END

*D_NET *15 0.000999396
*CONN
*P data2[4] I
*I *709:A I *D sky130_fd_sc_hd__clkbuf_1
*CAP
1 data2[4] 0.000499698
2 *709:A 0.000499698
3 *709:A *19:11 0
4 *708:A *709:A 0
*RES
1 data2[4] *709:A 48.73 
*END

*D_NET *16 0.000568138
*CONN
*P data2[5] I
*I *710:A I *D sky130_fd_sc_hd__clkbuf_1
*CAP
1 data2[5] 0.000254489
2 *710:A 0.000254489
3 *710:A res[7] 1.5289e-05
4 *710:A *18:17 2.79122e-05
5 *710:A *29:14 1.59585e-05
6 *710:A *164:10 0
*RES
1 data2[5] *710:A 47.7832 
*END

*D_NET *17 0.000901682
*CONN
*P data2[6] I
*I *711:A I *D sky130_fd_sc_hd__clkbuf_1
*CAP
1 data2[6] 0.000450841
2 *711:A 0.000450841
*RES
1 data2[6] *711:A 47.3214 
*END

*D_NET *18 0.000721673
*CONN
*P data2[7] I
*I *712:A I *D sky130_fd_sc_hd__clkbuf_1
*CAP
1 data2[7] 0.00034688
2 *712:A 0
3 *18:17 0.00034688
4 *710:A *18:17 2.79122e-05
*RES
1 data2[7] *18:17 27.8627 
2 *18:17 *712:A 23 
*END

*D_NET *19 0.00126699
*CONN
*P op[0] I
*I *713:A I *D sky130_fd_sc_hd__buf_2
*CAP
1 op[0] 0.000561155
2 *713:A 0
3 *19:11 0.000561155
4 *19:11 *581:C_N 5.56356e-05
5 *19:11 *714:A 0
6 *19:11 *110:14 8.90445e-05
7 *709:A *19:11 0
*RES
1 op[0] *19:11 27.3043 
2 *19:11 *713:A 23 
*END

*D_NET *20 0.00110241
*CONN
*P op[1] I
*I *714:A I *D sky130_fd_sc_hd__buf_2
*CAP
1 op[1] 0.000521471
2 *714:A 0.000521471
3 *714:A *715:A 0
4 *714:A *167:56 5.67058e-05
5 *714:A *167:68 2.76611e-06
6 *19:11 *714:A 0
*RES
1 op[1] *714:A 49.3514 
*END

*D_NET *21 0.000991299
*CONN
*P op[2] I
*I *715:A I *D sky130_fd_sc_hd__clkbuf_2
*CAP
1 op[2] 0.00049565
2 *715:A 0.00049565
3 *714:A *715:A 0
*RES
1 op[2] *715:A 48.8543 
*END

*D_NET *22 0.000710635
*CONN
*P res[0] O
*I *728:X O *D sky130_fd_sc_hd__buf_2
*CAP
1 res[0] 0.000239936
2 *728:X 0.000239936
3 res[0] res[1] 8.73764e-05
4 res[0] *42:8 3.28979e-05
5 res[0] *102:8 2.31116e-05
6 *717:A res[0] 8.73764e-05
*RES
1 *728:X res[0] 48.5734 
*END

*D_NET *23 0.00169161
*CONN
*P res[1] O
*I *729:X O *D sky130_fd_sc_hd__buf_2
*CAP
1 res[1] 0.000672281
2 *729:X 0.000672281
3 res[1] *130:80 7.71407e-05
4 res[1] *180:113 4.76176e-05
5 res[1] *185:36 5.64488e-05
6 res[0] res[1] 8.73764e-05
7 *717:A res[1] 0
8 *723:A res[1] 7.84616e-05
*RES
1 *729:X res[1] 49.0712 
*END

*D_NET *24 0.000960449
*CONN
*P res[2] O
*I *730:X O *D sky130_fd_sc_hd__buf_2
*CAP
1 res[2] 0.000480224
2 *730:X 0.000480224
3 *707:A res[2] 0
*RES
1 *730:X res[2] 48.5021 
*END

*D_NET *25 0.00100219
*CONN
*P res[3] O
*I *731:X O *D sky130_fd_sc_hd__buf_2
*CAP
1 res[3] 0.000501094
2 *731:X 0.000501094
3 *708:A res[3] 0
*RES
1 *731:X res[3] 48.9786 
*END

*D_NET *26 0.000735366
*CONN
*P res[4] O
*I *732:X O *D sky130_fd_sc_hd__buf_2
*CAP
1 res[4] 0.000318684
2 *732:X 0.000318684
3 res[4] res[5] 5.11907e-05
4 res[4] res[6] 3.49463e-05
5 res[4] *28:10 1.18615e-05
6 res[4] *87:8 0
*RES
1 *732:X res[4] 48.7952 
*END

*D_NET *27 0.000827336
*CONN
*P res[5] O
*I *733:X O *D sky130_fd_sc_hd__buf_2
*CAP
1 res[5] 0.000114258
2 *733:X 0.000273815
3 *27:12 0.000388072
4 *27:12 *90:10 0
5 *27:12 *174:8 0
6 res[4] res[5] 5.11907e-05
*RES
1 *733:X *27:12 49.7804 
2 *27:12 res[5] 0.500267 
*END

*D_NET *28 0.00101357
*CONN
*P res[6] O
*I *734:X O *D sky130_fd_sc_hd__buf_2
*CAP
1 res[6] 6.26282e-05
2 *734:X 0.000394815
3 *28:10 0.000457443
4 res[6] z 2.12457e-05
5 *28:10 *173:22 3.06338e-05
6 res[4] res[6] 3.49463e-05
7 res[4] *28:10 1.18615e-05
*RES
1 *734:X *28:10 43.9346 
2 *28:10 res[6] 8.32853 
*END

*D_NET *29 0.00076391
*CONN
*P res[7] O
*I *735:X O *D sky130_fd_sc_hd__buf_2
*CAP
1 res[7] 7.55753e-05
2 *735:X 0.000277031
3 *29:14 0.000352607
4 res[7] z 2.43221e-05
5 *29:14 z 3.12741e-06
6 *29:14 *30:10 0
7 *710:A res[7] 1.5289e-05
8 *710:A *29:14 1.59585e-05
*RES
1 *735:X *29:14 49.9 
2 *29:14 res[7] 0.382667 
*END

*D_NET *30 0.000803836
*CONN
*P z O
*I *736:X O *D sky130_fd_sc_hd__buf_2
*CAP
1 z 9.91983e-05
2 *736:X 0.000278372
3 *30:10 0.00037757
4 *30:10 *635:A 0
5 res[6] z 2.12457e-05
6 res[7] z 2.43221e-05
7 *29:14 z 3.12741e-06
8 *29:14 *30:10 0
*RES
1 *736:X *30:10 42.1532 
2 *30:10 z 8.4816 
*END

*D_NET *31 0.000596588
*CONN
*I *631:B1 I *D sky130_fd_sc_hd__o211a_1
*I *630:X O *D sky130_fd_sc_hd__or2_1
*CAP
1 *631:B1 0
2 *630:X 0.000224279
3 *31:10 0.000224279
4 *31:10 *61:12 0
5 *31:10 *127:58 0
6 *31:10 *130:44 0.000141954
7 *31:10 *154:10 6.07611e-06
8 *31:10 *195:125 0
*RES
1 *630:X *31:10 41.48 
2 *31:10 *631:B1 38 
*END

*D_NET *32 0.00267952
*CONN
*I *633:B1 I *D sky130_fd_sc_hd__a211o_1
*I *631:X O *D sky130_fd_sc_hd__o211a_1
*CAP
1 *633:B1 0.000160109
2 *631:X 0.00075411
3 *32:10 0.000914219
4 *633:B1 *633:A1 1.81751e-05
5 *633:B1 *633:C1 0.000182595
6 *633:B1 *187:43 1.5769e-05
7 *32:10 *617:A1 3.42479e-05
8 *32:10 *617:B1 7.27895e-05
9 *32:10 *632:A1 7.48331e-05
10 *32:10 *632:A3 2.12303e-05
11 *32:10 *652:A1 0.000155324
12 *32:10 *33:10 0.000110379
13 *32:10 *121:10 3.55458e-05
14 *32:10 *127:39 3.60195e-05
15 *32:10 *145:8 5.3304e-05
16 *32:10 *185:104 4.08664e-05
*RES
1 *631:X *32:10 48.2743 
2 *32:10 *633:B1 41.3764 
*END

*D_NET *33 0.0012182
*CONN
*I *633:C1 I *D sky130_fd_sc_hd__a211o_1
*I *632:X O *D sky130_fd_sc_hd__a31o_1
*CAP
1 *633:C1 6.75428e-05
2 *632:X 0.000260558
3 *33:10 0.000328101
4 *633:C1 *187:43 2.93335e-05
5 *33:10 *121:10 8.30566e-06
6 *33:10 *145:8 0.000231381
7 *33:10 *193:35 0
8 *633:B1 *633:C1 0.000182595
9 *32:10 *33:10 0.000110379
*RES
1 *632:X *33:10 42.4329 
2 *33:10 *633:C1 40.0714 
*END

*D_NET *34 0.00129773
*CONN
*I *634:B1 I *D sky130_fd_sc_hd__a31o_1
*I *633:X O *D sky130_fd_sc_hd__a211o_1
*CAP
1 *634:B1 0
2 *633:X 0.000494396
3 *34:10 0.000494396
4 *34:10 *633:A2 6.17437e-06
5 *34:10 *138:16 5.87176e-05
6 *34:10 *162:16 0.000138718
7 *34:10 *180:37 0.000105328
*RES
1 *633:X *34:10 45.2914 
2 *34:10 *634:B1 38 
*END

*D_NET *35 0.00150288
*CONN
*I *635:B I *D sky130_fd_sc_hd__and2_1
*I *693:A2_N I *D sky130_fd_sc_hd__o2bb2a_1
*I *634:X O *D sky130_fd_sc_hd__a31o_1
*CAP
1 *635:B 0
2 *693:A2_N 0
3 *634:X 0.000131489
4 *35:16 0.000437046
5 *35:8 0.000568534
6 *35:8 *634:A1 1.32314e-05
7 *35:8 *635:A 4.37033e-05
8 *35:16 *634:A1 0
9 *35:16 *635:A 0.000117121
10 *35:16 *693:A1_N 9.13072e-05
11 *35:16 *87:8 2.84809e-05
12 *35:16 *164:10 6.18235e-05
13 *35:16 *175:21 1.01436e-05
*RES
1 *634:X *35:8 25.5479 
2 *35:8 *35:16 37.5814 
3 *35:16 *693:A2_N 23 
4 *35:8 *635:B 23 
*END

*D_NET *36 0.000479982
*CONN
*I *640:A I *D sky130_fd_sc_hd__or4_1
*I *636:X O *D sky130_fd_sc_hd__a22o_1
*CAP
1 *640:A 1.80505e-05
2 *636:X 7.891e-05
3 *36:8 9.69604e-05
4 *640:A *695:A 5.50049e-05
5 *640:A *198:8 2.93747e-05
6 *36:8 *37:10 8.85189e-05
7 *36:8 *38:8 2.60152e-05
8 *36:8 *183:61 0
9 *36:8 *196:16 7.70038e-05
10 *36:8 *197:35 1.01436e-05
*RES
1 *636:X *36:8 40.2579 
2 *36:8 *640:A 38.6214 
*END

*D_NET *37 0.000934586
*CONN
*I *640:B I *D sky130_fd_sc_hd__or4_1
*I *637:X O *D sky130_fd_sc_hd__and2_1
*CAP
1 *640:B 0
2 *637:X 0.000202915
3 *37:10 0.000202915
4 *37:10 *661:B2 0.000171593
5 *37:10 *38:8 8.85189e-05
6 *37:10 *58:10 6.07611e-06
7 *37:10 *114:110 5.76076e-05
8 *37:10 *114:116 0
9 *37:10 *141:36 0.00010018
10 *37:10 *183:61 1.02387e-05
11 *37:10 *196:16 6.02277e-06
12 *36:8 *37:10 8.85189e-05
*RES
1 *637:X *37:10 43.8207 
2 *37:10 *640:B 38 
*END

*D_NET *38 0.000304304
*CONN
*I *640:C I *D sky130_fd_sc_hd__or4_1
*I *638:X O *D sky130_fd_sc_hd__a221o_1
*CAP
1 *640:C 0
2 *638:X 6.02073e-05
3 *38:8 6.02073e-05
4 *38:8 *183:61 6.93553e-05
5 *36:8 *38:8 2.60152e-05
6 *37:10 *38:8 8.85189e-05
*RES
1 *638:X *38:8 39.9057 
2 *38:8 *640:C 38 
*END

*D_NET *39 0.000607751
*CONN
*I *640:D I *D sky130_fd_sc_hd__or4_1
*I *639:X O *D sky130_fd_sc_hd__a22o_1
*CAP
1 *640:D 0.00024828
2 *639:X 0.00024828
3 *640:D *639:A2 6.17437e-06
4 *640:D *695:A 3.23684e-05
5 *640:D *118:100 6.70361e-05
6 *640:D *198:8 5.61255e-06
*RES
1 *639:X *640:D 49.0243 
*END

*D_NET *40 0.00273306
*CONN
*I *641:C1 I *D sky130_fd_sc_hd__o211a_1
*I *640:X O *D sky130_fd_sc_hd__or4_1
*CAP
1 *641:C1 0.000502241
2 *640:X 0.000252488
3 *40:12 0.000754729
4 *641:C1 *641:A2 5.67058e-05
5 *641:C1 *641:B1 5.67058e-05
6 *641:C1 *682:A2 0.000417426
7 *641:C1 *66:10 0.000412792
8 *641:C1 *69:10 5.26204e-05
9 *641:C1 *183:61 7.23795e-05
10 *641:C1 *185:57 0
11 *641:C1 *194:10 0
12 *641:C1 *194:25 0
13 *641:C1 *197:35 0
14 *40:12 *695:A 9.84794e-05
15 *40:12 *183:61 1.48425e-05
16 *40:12 *197:12 1.24376e-05
17 *40:12 *197:35 2.92149e-05
*RES
1 *640:X *40:12 41.2211 
2 *40:12 *641:C1 49.0718 
*END

*D_NET *41 0.000847161
*CONN
*I *646:A1 I *D sky130_fd_sc_hd__o32a_1
*I *641:X O *D sky130_fd_sc_hd__o211a_1
*CAP
1 *646:A1 0
2 *641:X 0.000185817
3 *41:8 0.000185817
4 *41:8 *44:10 1.14452e-05
5 *41:8 *157:34 0.000243596
6 *41:8 *185:57 0
7 *41:8 *194:10 8.62783e-05
8 *41:8 *194:144 0.000134207
*RES
1 *641:X *41:8 43.075 
2 *41:8 *646:A1 38 
*END

*D_NET *42 0.000407983
*CONN
*I *644:B I *D sky130_fd_sc_hd__and2b_1
*I *642:X O *D sky130_fd_sc_hd__a22o_1
*CAP
1 *644:B 0
2 *642:X 8.88319e-05
3 *42:8 8.88319e-05
4 *42:8 *102:8 4.43717e-05
5 *42:8 *110:64 0.000138727
6 *42:8 *194:163 1.43225e-05
7 res[0] *42:8 3.28979e-05
*RES
1 *642:X *42:8 40.61 
2 *42:8 *644:B 38 
*END

*D_NET *43 0.000425835
*CONN
*I *644:A_N I *D sky130_fd_sc_hd__and2b_1
*I *643:X O *D sky130_fd_sc_hd__a41o_1
*CAP
1 *644:A_N 0.000134975
2 *643:X 0.000134975
3 *644:A_N *44:10 3.22879e-05
4 *644:A_N *102:12 6.68919e-05
5 *644:A_N *110:64 5.67058e-05
*RES
1 *643:X *644:A_N 49.0036 
*END

*D_NET *44 0.00108823
*CONN
*I *646:A2 I *D sky130_fd_sc_hd__o32a_1
*I *644:X O *D sky130_fd_sc_hd__and2b_1
*CAP
1 *646:A2 0
2 *644:X 0.000284838
3 *44:10 0.000284838
4 *44:10 *102:8 0
5 *44:10 *110:64 1.41077e-05
6 *44:10 *157:34 6.07929e-05
7 *44:10 *157:47 4.34284e-05
8 *44:10 *194:144 0.000242404
9 *44:10 *194:163 0.000114092
10 *644:A_N *44:10 3.22879e-05
11 *41:8 *44:10 1.14452e-05
*RES
1 *644:X *44:10 43.8207 
2 *44:10 *646:A2 38 
*END

*D_NET *45 0.000511162
*CONN
*I *646:A3 I *D sky130_fd_sc_hd__o32a_1
*I *645:X O *D sky130_fd_sc_hd__a221o_1
*CAP
1 *646:A3 0.000181422
2 *645:X 0.000181422
3 *646:A3 *645:B2 3.623e-05
4 *646:A3 *646:B1 0.000112087
*RES
1 *645:X *646:A3 49.0243 
*END

*D_NET *46 0.00041005
*CONN
*I *648:B1 I *D sky130_fd_sc_hd__o21a_1
*I *647:Y O *D sky130_fd_sc_hd__a21oi_1
*CAP
1 *648:B1 9.84916e-05
2 *647:Y 9.84916e-05
3 *648:B1 *647:A1 8.8696e-05
4 *648:B1 *647:B1 9.41704e-05
5 *648:B1 *648:A1 3.23857e-06
6 *648:B1 *107:12 2.69615e-05
*RES
1 *647:Y *648:B1 48.5686 
*END

*D_NET *47 0.000332541
*CONN
*I *656:A1 I *D sky130_fd_sc_hd__o32a_1
*I *648:X O *D sky130_fd_sc_hd__o21a_1
*CAP
1 *656:A1 0
2 *648:X 6.3288e-05
3 *47:8 6.3288e-05
4 *47:8 *54:10 6.93553e-05
5 *47:8 *94:25 0.000136609
*RES
1 *648:X *47:8 39.9057 
2 *47:8 *656:A1 38 
*END

*D_NET *48 0.000593792
*CONN
*I *652:B1 I *D sky130_fd_sc_hd__a211o_1
*I *649:X O *D sky130_fd_sc_hd__a22o_1
*CAP
1 *652:B1 0
2 *649:X 0.000172827
3 *48:10 0.000172827
4 *48:10 *630:A 8.16253e-05
5 *48:10 *50:10 0.000166513
*RES
1 *649:X *48:10 41.3557 
2 *48:10 *652:B1 38 
*END

*D_NET *49 0.00134638
*CONN
*I *651:C1 I *D sky130_fd_sc_hd__a221o_1
*I *650:X O *D sky130_fd_sc_hd__a22o_1
*CAP
1 *651:C1 0
2 *650:X 0.000421135
3 *49:10 0.000421135
4 *49:10 *627:A1 2.44107e-05
5 *49:10 *627:B1 1.37349e-05
6 *49:10 *627:B2 2.26406e-05
7 *49:10 *114:52 0.000161814
8 *49:10 *119:10 0
9 *49:10 *140:76 7.9199e-05
10 *49:10 *185:104 3.83778e-05
11 *49:10 *195:74 4.77164e-06
12 *49:10 *195:81 0.000110866
13 *49:10 *195:104 4.83008e-05
*RES
1 *650:X *49:10 45.6021 
2 *49:10 *651:C1 38 
*END

*D_NET *50 0.00227901
*CONN
*I *652:C1 I *D sky130_fd_sc_hd__a211o_1
*I *651:X O *D sky130_fd_sc_hd__a221o_1
*CAP
1 *652:C1 0
2 *651:X 0.000520729
3 *50:10 0.000520729
4 *50:10 *617:B1 3.70187e-05
5 *50:10 *629:A1 0.000127573
6 *50:10 *629:B2 0.000164978
7 *50:10 *630:A 7.30392e-06
8 *50:10 *650:B1 7.75771e-06
9 *50:10 *144:12 0.000184056
10 *50:10 *155:10 0.000168754
11 *50:10 *178:29 1.15883e-05
12 *50:10 *184:52 3.34818e-06
13 *50:10 *184:63 1.00446e-05
14 *50:10 *198:46 0.000348621
15 *48:10 *50:10 0.000166513
*RES
1 *651:X *50:10 49.8486 
2 *50:10 *652:C1 38 
*END

*D_NET *51 0.000479459
*CONN
*I *653:C1 I *D sky130_fd_sc_hd__o211a_1
*I *652:X O *D sky130_fd_sc_hd__a211o_1
*CAP
1 *653:C1 0
2 *652:X 0.000127403
3 *51:10 0.000127403
4 *51:10 *126:10 0.000134081
5 *51:10 *127:39 5.67058e-05
6 *51:10 *195:125 3.38666e-05
*RES
1 *652:X *51:10 40.5271 
2 *51:10 *653:C1 38 
*END

*D_NET *52 0.00166776
*CONN
*I *656:A2 I *D sky130_fd_sc_hd__o32a_1
*I *653:X O *D sky130_fd_sc_hd__o211a_1
*CAP
1 *656:A2 0
2 *653:X 0.000698726
3 *52:10 0.000698726
4 *52:10 *89:63 0
5 *52:10 *116:25 2.7237e-05
6 *52:10 *130:44 2.15082e-05
7 *52:10 *180:29 0
8 *52:10 *193:27 2.94881e-05
9 *52:10 *195:133 0
10 *52:10 *196:108 0.000192077
*RES
1 *653:X *52:10 49.1443 
2 *52:10 *656:A2 38 
*END

*D_NET *53 0.00036495
*CONN
*I *655:B1 I *D sky130_fd_sc_hd__a21o_1
*I *654:X O *D sky130_fd_sc_hd__a31o_1
*CAP
1 *655:B1 8.48459e-05
2 *654:X 8.48459e-05
3 *655:B1 *654:A1 0
4 *655:B1 *655:A1 9.40635e-05
5 *655:B1 *95:40 0.000100061
6 *655:B1 *180:87 1.13393e-06
*RES
1 *654:X *655:B1 48.5996 
*END

*D_NET *54 0.00121923
*CONN
*I *656:A3 I *D sky130_fd_sc_hd__o32a_1
*I *655:X O *D sky130_fd_sc_hd__a21o_1
*CAP
1 *656:A3 0
2 *655:X 0.000384211
3 *54:10 0.000384211
4 *54:10 *579:A1 1.24376e-05
5 *54:10 *89:63 3.36312e-06
6 *54:10 *94:25 6.70527e-06
7 *54:10 *95:27 0
8 *54:10 *95:40 0.000176497
9 *54:10 *110:14 0.000161898
10 *54:10 *110:22 2.05503e-05
11 *47:8 *54:10 6.93553e-05
*RES
1 *655:X *54:10 44.7736 
2 *54:10 *656:A3 38 
*END

*D_NET *55 0.000924297
*CONN
*I *659:A I *D sky130_fd_sc_hd__nor2_1
*I *657:Y O *D sky130_fd_sc_hd__a21oi_1
*CAP
1 *659:A 0
2 *657:Y 0.000294577
3 *55:10 0.000294577
4 *55:10 *578:A2 1.24376e-05
5 *55:10 *690:B1_N 3.83778e-05
6 *55:10 *730:A 4.18957e-05
7 *55:10 *82:14 3.21327e-05
8 *55:10 *84:10 2.08324e-05
9 *55:10 *89:116 9.24795e-06
10 *55:10 *190:16 0.000180218
*RES
1 *657:Y *55:10 42.785 
2 *55:10 *659:A 38 
*END

*D_NET *56 0.000167797
*CONN
*I *659:B I *D sky130_fd_sc_hd__nor2_1
*I *658:X O *D sky130_fd_sc_hd__a31o_1
*CAP
1 *659:B 5.15302e-05
2 *658:X 5.15302e-05
3 *659:B *57:16 3.23684e-05
4 *659:B *99:33 5.90675e-06
5 *659:B *180:101 2.64616e-05
*RES
1 *658:X *659:B 47.1186 
*END

*D_NET *57 0.00177037
*CONN
*I *667:A1 I *D sky130_fd_sc_hd__o32a_1
*I *659:Y O *D sky130_fd_sc_hd__nor2_1
*CAP
1 *667:A1 0
2 *659:Y 0.000614308
3 *57:16 0.000614308
4 *57:16 *578:B1 2.60152e-05
5 *57:16 *667:A3 4.67488e-05
6 *57:16 *667:B2 2.64616e-05
7 *57:16 *691:A 1.01436e-05
8 *57:16 *731:A 8.9458e-05
9 *57:16 *62:10 3.70187e-05
10 *57:16 *99:33 0.000189932
11 *57:16 *171:8 5.50106e-05
12 *57:16 *180:101 2.85977e-05
13 *659:B *57:16 3.23684e-05
*RES
1 *659:Y *57:16 47.1557 
2 *57:16 *667:A1 38 
*END

*D_NET *58 0.00128903
*CONN
*I *661:C1 I *D sky130_fd_sc_hd__a221o_1
*I *660:X O *D sky130_fd_sc_hd__a22o_1
*CAP
1 *661:C1 0
2 *660:X 0.000422116
3 *58:10 0.000422116
4 *58:10 *114:110 8.72173e-05
5 *58:10 *140:27 0.000168677
6 *58:10 *182:57 0
7 *58:10 *190:107 0
8 *58:10 *195:10 0.000182826
9 *37:10 *58:10 6.07611e-06
*RES
1 *660:X *58:10 45.1671 
2 *58:10 *661:C1 38 
*END

*D_NET *59 0.000734723
*CONN
*I *663:B1 I *D sky130_fd_sc_hd__a211o_1
*I *661:X O *D sky130_fd_sc_hd__a221o_1
*CAP