*SPEF "ieee 1481-1999"
*DESIGN "pcInc"
*DATE "00:56:37 Saturday May 16, 2026"
*VENDOR "The OpenROAD Project"
*PROGRAM "OpenROAD"
*VERSION "v2.0-16235-gedf00dff9"
*DESIGN_FLOW "NAME_SCOPE LOCAL" "PIN_CAP NONE"
*DIVIDER /
*DELIMITER :
*BUS_DELIMITER []
*T_UNIT 1 NS
*C_UNIT 1 PF
*R_UNIT 1 OHM
*L_UNIT 1 HENRY

*NAME_MAP
*3 pcInput[0]
*4 pcInput[10]
*5 pcInput[11]
*6 pcInput[12]
*7 pcInput[13]
*8 pcInput[14]
*9 pcInput[15]
*10 pcInput[16]
*11 pcInput[17]
*12 pcInput[18]
*13 pcInput[19]
*14 pcInput[1]
*15 pcInput[20]
*16 pcInput[21]
*17 pcInput[22]
*18 pcInput[23]
*19 pcInput[24]
*20 pcInput[25]
*21 pcInput[26]
*22 pcInput[27]
*23 pcInput[28]
*24 pcInput[29]
*25 pcInput[2]
*26 pcInput[30]
*27 pcInput[31]
*28 pcInput[3]
*29 pcInput[4]
*30 pcInput[5]
*31 pcInput[6]
*32 pcInput[7]
*33 pcInput[8]
*34 pcInput[9]
*35 res[0]
*36 res[10]
*37 res[11]
*38 res[12]
*39 res[13]
*40 res[14]
*41 res[15]
*42 res[16]
*43 res[17]
*44 res[18]
*45 res[19]
*46 res[1]
*47 res[20]
*48 res[21]
*49 res[22]
*50 res[23]
*51 res[24]
*52 res[25]
*53 res[26]
*54 res[27]
*55 res[28]
*56 res[29]
*57 res[2]
*58 res[30]
*59 res[31]
*60 res[3]
*61 res[4]
*62 res[5]
*63 res[6]
*64 res[7]
*65 res[8]
*66 res[9]
*67 _000_
*68 _001_
*69 _002_
*70 _003_
*71 _004_
*72 _005_
*73 _006_
*74 _007_
*75 _008_
*76 _009_
*77 _010_
*78 _011_
*79 _012_
*80 _013_
*81 _014_
*82 _015_
*83 _016_
*84 _017_
*85 _018_
*86 _019_
*87 _020_
*88 _021_
*89 _022_
*90 _023_
*91 _024_
*92 _025_
*93 _026_
*94 _027_
*95 _028_
*96 _029_
*97 _030_
*98 _031_
*99 _032_
*100 _033_
*101 _034_
*102 _035_
*103 _036_
*104 _037_
*105 _038_
*106 net1
*107 net10
*108 net11
*109 net12
*110 net13
*111 net14
*112 net15
*113 net16
*114 net17
*115 net18
*116 net19
*117 net2
*118 net20
*119 net21
*120 net22
*121 net23
*122 net24
*123 net25
*124 net26
*125 net27
*126 net28
*127 net29
*128 net3
*129 net30
*130 net31
*131 net32
*132 net33
*133 net34
*134 net35
*135 net36
*136 net37
*137 net38
*138 net39
*139 net4
*140 net40
*141 net41
*142 net42
*143 net43
*144 net44
*145 net45
*146 net46
*147 net47
*148 net48
*149 net49
*150 net5
*151 net50
*152 net51
*153 net52
*154 net53
*155 net54
*156 net55
*157 net56
*158 net57
*159 net58
*160 net59
*161 net6
*162 net60
*163 net61
*164 net62
*165 net7
*166 net8
*167 net9
*168 FILLER_0_29
*169 FILLER_0_41
*170 FILLER_0_57
*171 FILLER_0_63
*172 FILLER_0_73
*173 FILLER_10_22
*174 FILLER_10_25
*175 FILLER_10_29
*176 FILLER_10_32
*177 FILLER_10_43
*178 FILLER_10_46
*179 FILLER_10_49
*180 FILLER_10_52
*181 FILLER_10_62
*182 FILLER_11_16
*183 FILLER_11_44
*184 FILLER_11_9
*185 FILLER_12_27
*186 FILLER_12_29
*187 FILLER_12_57
*188 FILLER_12_70
*189 FILLER_1_51
*190 FILLER_1_55
*191 FILLER_1_57
*192 FILLER_2_26
*193 FILLER_2_29
*194 FILLER_2_38
*195 FILLER_2_41
*196 FILLER_2_44
*197 FILLER_2_47
*198 FILLER_2_50
*199 FILLER_2_53
*200 FILLER_3_20
*201 FILLER_3_23
*202 FILLER_3_26
*203 FILLER_3_29
*204 FILLER_3_37
*205 FILLER_3_40
*206 FILLER_3_43
*207 FILLER_3_46
*208 FILLER_3_49
*209 FILLER_3_52
*210 FILLER_3_55
*211 FILLER_3_57
*212 FILLER_3_6
*213 FILLER_3_60
*214 FILLER_3_74
*215 FILLER_4_18
*216 FILLER_4_37
*217 FILLER_4_46
*218 FILLER_4_49
*219 FILLER_4_52
*220 FILLER_4_55
*221 FILLER_4_58
*222 FILLER_4_61
*223 FILLER_4_64
*224 FILLER_5_10
*225 FILLER_5_13
*226 FILLER_5_16
*227 FILLER_5_19
*228 FILLER_5_27
*229 FILLER_5_38
*230 FILLER_5_41
*231 FILLER_5_44
*232 FILLER_5_47
*233 FILLER_5_50
*234 FILLER_5_53
*235 FILLER_5_73
*236 FILLER_6_11
*237 FILLER_6_17
*238 FILLER_6_20
*239 FILLER_6_23
*240 FILLER_6_26
*241 FILLER_6_29
*242 FILLER_6_32
*243 FILLER_6_35
*244 FILLER_6_38
*245 FILLER_6_41
*246 FILLER_6_44
*247 FILLER_6_47
*248 FILLER_6_50
*249 FILLER_6_53
*250 FILLER_6_56
*251 FILLER_6_59
*252 FILLER_6_70
*253 FILLER_7_10
*254 FILLER_7_13
*255 FILLER_7_24
*256 FILLER_7_27
*257 FILLER_7_30
*258 FILLER_7_33
*259 FILLER_7_36
*260 FILLER_7_39
*261 FILLER_7_42
*262 FILLER_7_45
*263 FILLER_7_48
*264 FILLER_7_51
*265 FILLER_7_54
*266 FILLER_7_57
*267 FILLER_7_60
*268 FILLER_7_66
*269 FILLER_7_69
*270 FILLER_8_14
*271 FILLER_8_24
*272 FILLER_8_27
*273 FILLER_8_29
*274 FILLER_8_32
*275 FILLER_8_35
*276 FILLER_8_38
*277 FILLER_8_41
*278 FILLER_8_44
*279 FILLER_8_47
*280 FILLER_8_50
*281 FILLER_8_6
*282 FILLER_8_70
*283 FILLER_9_20
*284 FILLER_9_23
*285 FILLER_9_26
*286 FILLER_9_29
*287 FILLER_9_32
*288 FILLER_9_35
*289 FILLER_9_38
*290 FILLER_9_41
*291 FILLER_9_44
*292 FILLER_9_47
*293 FILLER_9_50
*294 FILLER_9_53
*295 FILLER_9_57
*296 FILLER_9_70
*297 PHY_EDGE_ROW_0_Left_13
*298 PHY_EDGE_ROW_0_Right_0
*299 PHY_EDGE_ROW_10_Left_23
*300 PHY_EDGE_ROW_10_Right_10
*301 PHY_EDGE_ROW_11_Left_24
*302 PHY_EDGE_ROW_11_Right_11
*303 PHY_EDGE_ROW_12_Left_25
*304 PHY_EDGE_ROW_12_Right_12
*305 PHY_EDGE_ROW_1_Left_14
*306 PHY_EDGE_ROW_1_Right_1
*307 PHY_EDGE_ROW_2_Left_15
*308 PHY_EDGE_ROW_2_Right_2
*309 PHY_EDGE_ROW_3_Left_16
*310 PHY_EDGE_ROW_3_Right_3
*311 PHY_EDGE_ROW_4_Left_17
*312 PHY_EDGE_ROW_4_Right_4
*313 PHY_EDGE_ROW_5_Left_18
*314 PHY_EDGE_ROW_5_Right_5
*315 PHY_EDGE_ROW_6_Left_19
*316 PHY_EDGE_ROW_6_Right_6
*317 PHY_EDGE_ROW_7_Left_20
*318 PHY_EDGE_ROW_7_Right_7
*319 PHY_EDGE_ROW_8_Left_21
*320 PHY_EDGE_ROW_8_Right_8
*321 PHY_EDGE_ROW_9_Left_22
*322 PHY_EDGE_ROW_9_Right_9
*323 TAP_TAPCELL_ROW_0_26
*324 TAP_TAPCELL_ROW_0_27
*325 TAP_TAPCELL_ROW_10_37
*326 TAP_TAPCELL_ROW_11_38
*327 TAP_TAPCELL_ROW_12_39
*328 TAP_TAPCELL_ROW_12_40
*329 TAP_TAPCELL_ROW_1_28
*330 TAP_TAPCELL_ROW_2_29
*331 TAP_TAPCELL_ROW_3_30
*332 TAP_TAPCELL_ROW_4_31
*333 TAP_TAPCELL_ROW_5_32
*334 TAP_TAPCELL_ROW_6_33
*335 TAP_TAPCELL_ROW_7_34
*336 TAP_TAPCELL_ROW_8_35
*337 TAP_TAPCELL_ROW_9_36
*338 _039_
*339 _040_
*340 _041_
*341 _042_
*342 _043_
*343 _044_
*344 _045_
*345 _046_
*346 _047_
*347 _048_
*348 _049_
*349 _050_
*350 _051_
*351 _052_
*352 _053_
*353 _054_
*354 _055_
*355 _056_
*356 _057_
*357 _058_
*358 _059_
*359 _060_
*360 _061_
*361 _062_
*362 _063_
*363 _064_
*364 _065_
*365 _066_
*366 _067_
*367 _068_
*368 _069_
*369 _070_
*370 _071_
*371 _072_
*372 _073_
*373 _074_
*374 _075_
*375 _076_
*376 _077_
*377 _078_
*378 _079_
*379 _080_
*380 _081_
*381 _082_
*382 _083_
*383 _084_
*384 _085_
*385 _086_
*386 _087_
*387 _088_
*388 _089_
*389 _090_
*390 _091_
*391 _092_
*392 _093_
*393 _094_
*394 _095_
*395 _096_
*396 _097_
*397 _098_
*398 _099_
*399 _100_
*400 _101_
*401 _102_
*402 _103_
*403 _104_
*404 _105_
*405 _106_
*406 _107_
*407 _108_
*408 _109_
*409 input1
*410 input10
*411 input11
*412 input12
*413 input13
*414 input14
*415 input15
*416 input16
*417 input17
*418 input18
*419 input19
*420 input2
*421 input20
*422 input21
*423 input22
*424 input23
*425 input24
*426 input25
*427 input26
*428 input27
*429 input28
*430 input29
*431 input3
*432 input30
*433 input4
*434 input5
*435 input6
*436 input7
*437 input8
*438 input9
*439 output31
*440 output32
*441 output33
*442 output34
*443 output35
*444 output36
*445 output37
*446 output38
*447 output39
*448 output40
*449 output41
*450 output42
*451 output43
*452 output44
*453 output45
*454 output46
*455 output47
*456 output48
*457 output49
*458 output50
*459 output51
*460 output52
*461 output53
*462 output54
*463 output55
*464 output56
*465 output57
*466 output58
*467 output59
*468 output60
*469 output61
*470 output62

*PORTS
pcInput[0] I
pcInput[10] I
pcInput[11] I
pcInput[12] I
pcInput[13] I
pcInput[14] I
pcInput[15] I
pcInput[16] I
pcInput[17] I
pcInput[18] I
pcInput[19] I
pcInput[1] I
pcInput[20] I
pcInput[21] I
pcInput[22] I
pcInput[23] I
pcInput[24] I
pcInput[25] I
pcInput[26] I
pcInput[27] I
pcInput[28] I
pcInput[29] I
pcInput[2] I
pcInput[30] I
pcInput[31] I
pcInput[3] I
pcInput[4] I
pcInput[5] I
pcInput[6] I
pcInput[7] I
pcInput[8] I
pcInput[9] I
res[0] O
res[10] O
res[11] O
res[12] O
res[13] O
res[14] O
res[15] O
res[16] O
res[17] O
res[18] O
res[19] O
res[1] O
res[20] O
res[21] O
res[22] O
res[23] O
res[24] O
res[25] O
res[26] O
res[27] O
res[28] O
res[29] O
res[2] O
res[30] O
res[31] O
res[3] O
res[4] O
res[5] O
res[6] O
res[7] O
res[8] O
res[9] O

*D_NET *3 0.00284983
*CONN
*P pcInput[0] I
*I *407:A I *D sky130_fd_sc_hd__clkbuf_1
*CAP
1 pcInput[0] 0.000639064
2 *407:A 0.000639064
3 *407:A res[0] 6.63071e-05
4 *407:A res[22] 0.000232277
5 *407:A *414:A 0.00127311
6 *407:A *110:14 0
*RES
1 pcInput[0] *407:A 34.2109 
*END

*D_NET *4 0.00189027
*CONN
*P pcInput[10] I
*I *409:A I *D sky130_fd_sc_hd__buf_1
*CAP
1 pcInput[10] 0.000528869
2 *409:A 0.000528869
3 *409:A res[12] 0.000270714
4 *409:A *425:A 2.83284e-06
5 *409:A *427:A 0
6 *409:A *430:A 0
7 *409:A *465:A 0.00033678
8 *409:A *117:14 0
9 *409:A *119:38 2.72545e-05
10 *409:A *123:12 0.000194949
*RES
1 pcInput[10] *409:A 26.8179 
*END

*D_NET *5 0.00140043
*CONN
*P pcInput[11] I
*I *420:A I *D sky130_fd_sc_hd__clkbuf_1
*CAP
1 pcInput[11] 0.000615244
2 *420:A 0.000615244
3 *420:A res[5] 9.71197e-05
4 *420:A *392:C 1.76039e-05
5 *420:A *427:A 0
6 *420:A *432:A 0
7 *420:A *442:A 0
8 *420:A *80:34 5.52238e-05
*RES
1 pcInput[11] *420:A 25.2464 
*END

*D_NET *6 0.00069755
*CONN
*P pcInput[12] I
*I *431:A I *D sky130_fd_sc_hd__buf_1
*CAP
1 pcInput[12] 0.000322482
2 *431:A 0.000322482
3 *431:A res[13] 2.99915e-05
4 *431:A *401:B 0
5 *431:A *433:A 2.25951e-05
*RES
1 pcInput[12] *431:A 21.6946 
*END

*D_NET *7 0.000761187
*CONN
*P pcInput[13] I
*I *433:A I *D sky130_fd_sc_hd__clkbuf_1
*CAP
1 pcInput[13] 0.000354912
2 *433:A 0.000354912
3 *433:A res[2] 2.87684e-05
4 *433:A *401:B 0
5 *433:A *29:19 0
6 *431:A *433:A 2.25951e-05
*RES
1 pcInput[13] *433:A 22.6732 
*END

*D_NET *8 0.00277597
*CONN
*P pcInput[14] I
*I *434:A I *D sky130_fd_sc_hd__buf_1
*CAP
1 pcInput[14] 0.00067477
2 *434:A 0.00067477
3 *434:A res[17] 5.08977e-05
4 *434:A *404:B 0.000342502
5 *434:A *405:B 0
6 *434:A *406:B 0
7 *434:A *408:A 0.000170173
8 *434:A *421:A 0.000821674
9 *434:A *424:A 0
10 *434:A *435:A 4.11839e-05
11 *434:A *436:A 0
*RES
1 pcInput[14] *434:A 31.0891 
*END

*D_NET *9 0.00218914
*CONN
*P pcInput[15] I
*I *435:A I *D sky130_fd_sc_hd__clkbuf_1
*CAP
1 pcInput[15] 0.000778471
2 *435:A 0.000778471
3 *435:A res[15] 2.5419e-05
4 *435:A res[16] 0.000168293
5 *435:A res[17] 0.000192475
6 *435:A res[1] 0
7 *435:A *349:B 0
8 *435:A *421:A 9.60875e-05
9 *435:A *436:A 4.42999e-05
10 *435:A *445:A 0
11 *435:A *118:10 6.4443e-05
12 *434:A *435:A 4.11839e-05
*RES
1 pcInput[15] *435:A 31.906 
*END

*D_NET *10 0.00214909
*CONN
*P pcInput[16] I
*I *436:A I *D sky130_fd_sc_hd__clkbuf_1
*CAP
1 pcInput[16] 0.000638353
2 *436:A 0.000638353
3 *436:A res[15] 6.57686e-05
4 *436:A *404:B 6.7653e-05
5 *436:A *421:A 0.000544755
6 *436:A *445:A 0.000149904
7 *436:A *150:14 0
8 *434:A *436:A 0
9 *435:A *436:A 4.42999e-05
*RES
1 pcInput[16] *436:A 28.1413 
*END

*D_NET *11 0.00148138
*CONN
*P pcInput[17] I
*I *437:A I *D sky130_fd_sc_hd__clkbuf_1
*CAP
1 pcInput[17] 0.000599123
2 *437:A 0.000599123
3 *437:A res[14] 6.37275e-05
4 *437:A res[15] 0
5 *437:A res[16] 3.71658e-05
6 *437:A *404:B 0
7 *437:A *87:10 0.000182239
8 *437:A *150:8 0
*RES
1 pcInput[17] *437:A 20.8965 
*END

*D_NET *12 0.00227916
*CONN
*P pcInput[18] I
*I *438:A I *D sky130_fd_sc_hd__clkbuf_1
*CAP
1 pcInput[18] 0.000940773
2 *438:A 0.000940773
3 *438:A res[0] 0
4 *438:A res[10] 8.17336e-05
5 *438:A *364:B1 3.51442e-05
6 *438:A *413:A 0
7 *438:A *415:A 7.38004e-05
8 *438:A *453:A 0.000143443
9 *438:A *455:A 9.60337e-06
10 *438:A *96:30 5.38886e-05
11 *438:A *100:14 0
*RES
1 pcInput[18] *438:A 22.3837 
*END

*D_NET *13 0.000504442
*CONN
*P pcInput[19] I
*I *410:A I *D sky130_fd_sc_hd__buf_1
*CAP
1 pcInput[19] 0.000154292
2 *410:A 0.000154292
3 *410:A *411:A 8.57347e-05
4 *410:A *412:A 8.31618e-05
5 *410:A *109:14 2.69614e-05
*RES
1 pcInput[19] *410:A 18.4264 
*END

*D_NET *14 0.00154735
*CONN
*P pcInput[1] I
*I *408:A I *D sky130_fd_sc_hd__clkbuf_1
*CAP
1 pcInput[1] 0.000454388
2 *408:A 0.000454388
3 *408:A res[9] 0
4 *408:A *405:A 5.33005e-05
5 *408:A *405:B 5.71472e-05
6 *408:A *424:A 0
7 *408:A *447:A 0.000318107
8 *408:A *450:A 3.9846e-05
9 *408:A *470:A 0
10 *434:A *408:A 0.000170173
*RES
1 pcInput[1] *408:A 25.3357 
*END

*D_NET *15 0.000473947
*CONN
*P pcInput[20] I
*I *411:A I *D sky130_fd_sc_hd__clkbuf_1
*CAP
1 pcInput[20] 0.000142218
2 *411:A 0.000142218
3 *411:A res[19] 7.68146e-05
4 *411:A *107:8 2.69614e-05
5 *410:A *411:A 8.57347e-05
*RES
1 pcInput[20] *411:A 18.4264 
*END

*D_NET *16 0.00112416
*CONN
*P pcInput[21] I
*I *412:A I *D sky130_fd_sc_hd__clkbuf_1
*CAP
1 pcInput[21] 0.000366326
2 *412:A 0.000366326
3 *412:A res[21] 7.62591e-05
4 *412:A *419:A 8.57347e-05
5 *412:A *451:A 0
6 *412:A *109:14 0.000146349
7 *410:A *412:A 8.31618e-05
*RES
1 pcInput[21] *412:A 22.0693 
*END

*D_NET *17 0.00128318
*CONN
*P pcInput[22] I
*I *413:A I *D sky130_fd_sc_hd__buf_1
*CAP
1 pcInput[22] 0.000476875
2 *413:A 0.000476875
3 *413:A res[10] 8.35073e-05
4 *413:A res[18] 9.23325e-05
5 *413:A *355:B 1.02504e-05
6 *413:A *96:12 8.70215e-05
7 *413:A *110:10 5.63231e-05
8 *438:A *413:A 0
*RES
1 pcInput[22] *413:A 20.4487 
*END

*D_NET *18 0.00416528
*CONN
*P pcInput[23] I
*I *414:A I *D sky130_fd_sc_hd__clkbuf_1
*CAP
1 pcInput[23] 0.000921041
2 *414:A 0.000921041
3 *414:A res[0] 0
4 *414:A res[23] 0
5 *414:A res[6] 0.000190087
6 *414:A *363:A 2.89016e-05
7 *414:A *363:B 7.86679e-05
8 *414:A *415:A 0.000543047
9 *414:A *439:A 5.52302e-05
10 *414:A *453:A 5.52238e-05
11 *414:A *96:26 9.89265e-05
12 *414:A *110:14 0
13 *407:A *414:A 0.00127311
*RES
1 pcInput[23] *414:A 41.3901 
*END

*D_NET *19 0.00323591
*CONN
*P pcInput[24] I
*I *415:A I *D sky130_fd_sc_hd__clkbuf_1
*CAP
1 pcInput[24] 0.000860676
2 *415:A 0.000860676
3 *415:A res[0] 7.638e-05
4 *415:A res[10] 4.5534e-05
5 *415:A res[6] 0.000131193
6 *415:A *364:A1 1.02936e-05
7 *415:A *364:B1 9.07308e-05
8 *415:A *366:A 8.70392e-05
9 *415:A *367:A 0
10 *415:A *439:A 0
11 *415:A *440:A 0.000268403
12 *415:A *110:14 0
13 *415:A *110:16 0
14 *415:A *112:10 0.000188138
15 *414:A *415:A 0.000543047
16 *438:A *415:A 7.38004e-05
*RES
1 pcInput[24] *415:A 34.1229 
*END

*D_NET *20 0.0029339
*CONN
*P pcInput[25] I
*I *416:A I *D sky130_fd_sc_hd__clkbuf_1
*CAP
1 pcInput[25] 0.000948342
2 *416:A 0.000948342
3 *416:A *417:A 0.00018472
4 *416:A *418:A 0.000238198
5 *416:A *419:A 0.000138603
6 *416:A *459:A 9.90431e-05
7 *416:A *113:14 0.000183297
8 *416:A *114:16 0.000193352
*RES
1 pcInput[25] *416:A 28.5227 
*END

*D_NET *21 0.00380449
*CONN
*P pcInput[26] I
*I *417:A I *D sky130_fd_sc_hd__buf_1
*CAP
1 pcInput[26] 0.000887841
2 *417:A 0.000887841
3 *417:A res[20] 8.66437e-05
4 *417:A res[27] 8.74238e-05
5 *417:A res[28] 0.000144773
6 *417:A res[29] 0.000144075
7 *417:A res[30] 0.000144773
8 *417:A res[8] 0.000100684
9 *417:A *418:A 0.000539088
10 *417:A *114:16 0.000596627
11 *416:A *417:A 0.00018472
*RES
1 pcInput[26] *417:A 33.3977 
*END

*D_NET *22 0.00273256
*CONN
*P pcInput[27] I
*I *418:A I *D sky130_fd_sc_hd__clkbuf_1
*CAP
1 pcInput[27] 0.000609953
2 *418:A 0.000609953
3 *418:A res[20] 0.00041274
4 *418:A res[21] 0
5 *418:A res[27] 8.07313e-05
6 *418:A *451:A 0.000142856
7 *418:A *459:A 9.90431e-05
8 *416:A *418:A 0.000238198
9 *417:A *418:A 0.000539088
*RES
1 pcInput[27] *418:A 31.0857 
*END

*D_NET *23 0.0015918
*CONN
*P pcInput[28] I
*I *419:A I *D sky130_fd_sc_hd__clkbuf_1
*CAP
1 pcInput[28] 0.000522374
2 *419:A 0.000522374
3 *419:A *372:B 5.41794e-05
4 *419:A *451:A 6.15773e-05
5 *419:A *458:A 0.000125243
6 *419:A *459:A 0
7 *419:A *101:78 2.04825e-05
8 *419:A *116:10 6.12306e-05
9 *412:A *419:A 8.57347e-05
10 *416:A *419:A 0.000138603
*RES
1 pcInput[28] *419:A 22.3958 
*END

*D_NET *24 0.00345866
*CONN
*P pcInput[29] I
*I *421:A I *D sky130_fd_sc_hd__buf_1
*CAP
1 pcInput[29] 0.000967281
2 *421:A 0.000967281
3 *421:A res[17] 0
4 *421:A res[1] 0
5 *421:A *424:A 5.41494e-05
6 *421:A *118:10 7.43578e-06
7 *434:A *421:A 0.000821674
8 *435:A *421:A 9.60875e-05
9 *436:A *421:A 0.000544755
*RES
1 pcInput[29] *421:A 46.3714 
*END

*D_NET *25 0.00065328
*CONN
*P pcInput[2] I
*I *422:A I *D sky130_fd_sc_hd__dlymetal6s2s_1
*CAP
1 pcInput[2] 0.000287297
2 *422:A 0.000287297
3 *422:A res[2] 2.71788e-05
4 *422:A res[4] 2.89114e-05
5 *422:A *425:A 2.25951e-05
6 *422:A *29:19 0
*RES
1 pcInput[2] *422:A 21.0874 
*END

*D_NET *26 0.000977448
*CONN
*P pcInput[30] I
*I *423:A I *D sky130_fd_sc_hd__clkbuf_1
*CAP
1 pcInput[30] 0.00039125
2 *423:A 0.00039125
3 *423:A res[31] 0
4 *423:A res[9] 0
5 *423:A *424:A 0.00019212
6 *423:A *463:A 2.8266e-06
*RES
1 pcInput[30] *423:A 22.7464 
*END

*D_NET *27 0.00214736
*CONN
*P pcInput[31] I
*I *424:A I *D sky130_fd_sc_hd__clkbuf_1
*CAP
1 pcInput[31] 0.000739219
2 *424:A 0.000739219
3 *424:A res[17] 0.00018745
4 *424:A res[9] 0.000102537
5 *424:A *447:A 3.17067e-05
6 *424:A *470:A 0.00010096
7 *408:A *424:A 0
8 *421:A *424:A 5.41494e-05
9 *423:A *424:A 0.00019212
10 *434:A *424:A 0
*RES
1 pcInput[31] *424:A 40.2107 
*END

*D_NET *28 0.00318865
*CONN
*P pcInput[3] I
*I *425:A I *D sky130_fd_sc_hd__buf_1
*CAP
1 pcInput[3] 0.00103497
2 *425:A 0.00103497
3 *425:A res[12] 0
4 *425:A res[3] 0.000170007
5 *425:A *344:B 5.52302e-05
6 *425:A *386:B 0.000128154
7 *425:A *430:A 0
8 *425:A *442:A 0.000576023
9 *425:A *465:A 7.9239e-05
10 *425:A *29:19 5.52302e-05
11 *425:A *119:38 2.94028e-05
12 *425:A *123:12 0
13 *409:A *425:A 2.83284e-06
14 *422:A *425:A 2.25951e-05
*RES
1 pcInput[3] *425:A 31.2185 
*END

*D_NET *29 0.00367349
*CONN
*P pcInput[4] I
*I *426:A I *D sky130_fd_sc_hd__clkbuf_1
*CAP
1 pcInput[4] 0.00126135
2 *426:A 0
3 *29:19 0.00126135
4 *29:19 res[2] 0
5 *29:19 res[3] 0
6 *29:19 res[4] 0.000211217
7 *29:19 *344:B 0.000151337
8 *29:19 *401:B 1.19309e-05
9 *29:19 *427:A 0.000216862
10 *29:19 *430:A 0
11 *29:19 *464:A 0
12 *29:19 *119:12 0.00020455
13 *29:19 *122:10 5.96516e-05
14 *29:19 *127:14 0.000186669
15 *29:19 *139:8 5.33334e-05
16 *422:A *29:19 0
17 *425:A *29:19 5.52302e-05
18 *433:A *29:19 0
*RES
1 pcInput[4] *29:19 41 
2 *29:19 *426:A 9.3 
*END

*D_NET *30 0.00315474
*CONN
*P pcInput[5] I
*I *427:A I *D sky130_fd_sc_hd__clkbuf_1
*CAP
1 pcInput[5] 0.00117366
2 *427:A 0.00117366
3 *427:A res[4] 0
4 *427:A res[5] 0.000192111
5 *427:A *339:A 0.000154762
6 *427:A *392:C 0
7 *427:A *466:A 8.39e-05
8 *427:A *80:34 0
9 *427:A *80:52 0
10 *427:A *117:14 0.00015978
11 *409:A *427:A 0
12 *420:A *427:A 0
13 *29:19 *427:A 0.000216862
*RES
1 pcInput[5] *427:A 47.7286 
*END

*D_NET *31 0.00101525
*CONN
*P pcInput[6] I
*I *428:A I *D sky130_fd_sc_hd__buf_1
*CAP
1 pcInput[6] 0.000501559
2 *428:A 0.000501559
3 *428:A *391:B 3.69047e-06
4 *428:A *429:A 0
5 *428:A *432:A 0
6 *428:A *468:A 2.38651e-06
7 *428:A *125:8 6.05161e-06
*RES
1 pcInput[6] *428:A 22.9071 
*END

*D_NET *32 0.00132311
*CONN
*P pcInput[7] I
*I *429:A I *D sky130_fd_sc_hd__buf_1
*CAP
1 pcInput[7] 0.000580325
2 *429:A 0.000580325
3 *429:A res[24] 0
4 *429:A *453:A 0
5 *429:A *467:A 7.77751e-05
6 *429:A *468:A 5.57727e-05
7 *429:A *126:8 2.89114e-05
8 *428:A *429:A 0
*RES
1 pcInput[7] *429:A 25.3893 
*END

*D_NET *33 0.00265383
*CONN
*P pcInput[8] I
*I *430:A I *D sky130_fd_sc_hd__clkbuf_1
*CAP
1 pcInput[8] 0.000550698
2 *430:A 0.000550698
3 *430:A res[3] 0.000701957
4 *430:A res[4] 0
5 *430:A *400:A2 1.02504e-05
6 *430:A *401:B 0
7 *430:A *442:A 0.000516217
8 *430:A *464:A 1.3142e-05
9 *430:A *122:10 0.000310864
10 *409:A *430:A 0
11 *425:A *430:A 0
12 *29:19 *430:A 0
*RES
1 pcInput[8] *430:A 29.9607 
*END

*D_NET *34 0.00110213
*CONN
*P pcInput[9] I
*I *432:A I *D sky130_fd_sc_hd__clkbuf_1
*CAP
1 pcInput[9] 0.000450379
2 *432:A 0.000450379
3 *432:A *389:B 0.000100684
4 *432:A *125:17 0.000100684
5 *420:A *432:A 0
6 *428:A *432:A 0
*RES
1 pcInput[9] *432:A 22.7821 
*END

*D_NET *35 0.00239941
*CONN
*P res[0] O
*I *439:X O *D sky130_fd_sc_hd__buf_2
*CAP
1 res[0] 0.00069124
2 *439:X 0.00069124
3 res[0] res[23] 0.000313996
4 res[0] res[6] 0
5 res[0] res[7] 0
6 res[0] *367:A 9.25437e-05
7 res[0] *367:B 7.40526e-05
8 res[0] *367:C 1.46717e-05
9 res[0] *454:A 0.0003256
10 res[0] *110:14 1.02504e-05
11 res[0] *110:16 4.31289e-05
12 *407:A res[0] 6.63071e-05
13 *414:A res[0] 0
14 *415:A res[0] 7.638e-05
15 *438:A res[0] 0
*RES
1 *439:X res[0] 27.0553 
*END

*D_NET *36 0.000633086
*CONN
*P res[10] O
*I *440:X O *D sky130_fd_sc_hd__buf_2
*CAP
1 res[10] 0.000209089
2 *440:X 0.000209089
3 res[10] *110:14 0
4 res[10] *110:16 4.1331e-06
5 *413:A res[10] 8.35073e-05
6 *415:A res[10] 4.5534e-05
7 *438:A res[10] 8.17336e-05
*RES
1 *440:X res[10] 18.4985 
*END

*D_NET *37 0.00075105
*CONN
*P res[11] O
*I *441:X O *D sky130_fd_sc_hd__buf_2
*CAP
1 res[11] 0.000319909
2 *441:X 0.000319909
3 res[11] res[13] 2.87684e-05
4 res[11] res[14] 6.18446e-05
5 res[11] *401:A 2.06178e-05
*RES
1 *441:X res[11] 18.4832 
*END

*D_NET *38 0.0021754
*CONN
*P res[12] O
*I *442:X O *D sky130_fd_sc_hd__buf_2
*CAP
1 res[12] 0.000931333
2 *442:X 0.000931333
3 res[12] res[3] 4.20227e-05
4 res[12] res[5] 0
5 *409:A res[12] 0.000270714
6 *425:A res[12] 0
*RES
1 *442:X res[12] 28.9902 
*END

*D_NET *39 0.000725588
*CONN
*P res[13] O
*I *443:X O *D sky130_fd_sc_hd__buf_2
*CAP
1 res[13] 0.000333414
2 *443:X 0.000333414
3 res[11] res[13] 2.87684e-05
4 *431:A res[13] 2.99915e-05
*RES
1 *443:X res[13] 20.891 
*END

*D_NET *40 0.000828588
*CONN
*P res[14] O
*I *444:X O *D sky130_fd_sc_hd__buf_2
*CAP
1 res[14] 0.000331865
2 *444:X 0.000331865
3 res[14] *402:B 0
4 res[14] *444:A 3.92854e-05
5 res[11] res[14] 6.18446e-05
6 *437:A res[14] 6.37275e-05
*RES
1 *444:X res[14] 20.9609 
*END

*D_NET *41 0.000873007
*CONN
*P res[15] O
*I *445:X O *D sky130_fd_sc_hd__buf_2
*CAP
1 res[15] 0.00027186
2 *445:X 0.00027186
3 res[15] res[16] 0.000174117
4 res[15] *445:A 6.39829e-05
5 *435:A res[15] 2.5419e-05
6 *436:A res[15] 6.57686e-05
7 *437:A res[15] 0
*RES
1 *445:X res[15] 20.0151 
*END

*D_NET *42 0.00117255
*CONN
*P res[16] O
*I *446:X O *D sky130_fd_sc_hd__buf_2
*CAP
1 res[16] 0.000396486
2 *446:X 0.000396486
3 res[15] res[16] 0.000174117
4 *435:A res[16] 0.000168293
5 *437:A res[16] 3.71658e-05
*RES
1 *446:X res[16] 23.8161 
*END

*D_NET *43 0.00166917
*CONN
*P res[17] O
*I *447:X O *D sky130_fd_sc_hd__buf_2
*CAP
1 res[17] 0.000525839
2 *447:X 0.000525839
3 res[17] res[1] 0.000186669
4 *421:A res[17] 0
5 *424:A res[17] 0.00018745
6 *434:A res[17] 5.08977e-05
7 *435:A res[17] 0.000192475
*RES
1 *447:X res[17] 27.8709 
*END

*D_NET *44 0.000494293
*CONN
*P res[18] O
*I *448:X O *D sky130_fd_sc_hd__buf_2
*CAP
1 res[18] 0.000149603
2 *448:X 0.000149603
3 res[18] res[19] 9.28756e-05
4 res[18] *449:A 9.87983e-06
5 *413:A res[18] 9.23325e-05
*RES
1 *448:X res[18] 18.1949 
*END

*D_NET *45 0.000505374
*CONN
*P res[19] O
*I *449:X O *D sky130_fd_sc_hd__buf_2
*CAP
1 res[19] 0.00015674
2 *449:X 0.00015674
3 res[19] *107:12 2.22043e-05
4 res[18] res[19] 9.28756e-05
5 *411:A res[19] 7.68146e-05
*RES
1 *449:X res[19] 18.1949 
*END

*D_NET *46 0.00183711
*CONN
*P res[1] O
*I *450:X O *D sky130_fd_sc_hd__buf_2
*CAP
1 res[1] 0.000775701
2 *450:X 0.000775701
3 res[1] *447:A 9.90431e-05
4 res[17] res[1] 0.000186669
5 *421:A res[1] 0
6 *435:A res[1] 0
*RES
1 *450:X res[1] 26.7643 
*END

*D_NET *47 0.00128176
*CONN
*P res[20] O
*I *451:X O *D sky130_fd_sc_hd__buf_2
*CAP
1 res[20] 0.000284229
2 *451:X 0.000284229
3 res[20] res[21] 0.00021392
4 *417:A res[20] 8.66437e-05
5 *418:A res[20] 0.00041274
*RES
1 *451:X res[20] 23.0521 
*END

*D_NET *48 0.00217955
*CONN
*P res[21] O
*I *452:X O *D sky130_fd_sc_hd__buf_2
*CAP
1 res[21] 0.000692272
2 *452:X 0.000692272
3 res[21] res[25] 0.000504824
4 res[21] *451:A 0
5 res[20] res[21] 0.00021392
6 *412:A res[21] 7.62591e-05
7 *418:A res[21] 0
*RES
1 *452:X res[21] 32.0859 
*END

*D_NET *49 0.00266098
*CONN
*P res[22] O
*I *453:X O *D sky130_fd_sc_hd__buf_2
*CAP
1 res[22] 0.000842451
2 *453:X 0.000842451
3 res[22] res[23] 1.74352e-05
4 res[22] res[7] 0.000248788
5 res[22] *367:A 9.02232e-05
6 res[22] *367:B 2.28598e-05
7 res[22] *454:A 9.60939e-05
8 res[22] *100:14 0.000268396
9 *407:A res[22] 0.000232277
*RES
1 *453:X res[22] 32.8357 
*END

*D_NET *50 0.00133523
*CONN
*P res[23] O
*I *454:X O *D sky130_fd_sc_hd__buf_2
*CAP
1 res[23] 0.000368922
2 *454:X 0.000368922
3 res[23] res[24] 0
4 res[23] res[6] 0.000210728
5 res[23] *367:A 5.52302e-05
6 res[0] res[23] 0.000313996
7 res[22] res[23] 1.74352e-05
8 *414:A res[23] 0
*RES
1 *454:X res[23] 24.9964 
*END

*D_NET *51 0.00103305
*CONN
*P res[24] O
*I *455:X O *D sky130_fd_sc_hd__buf_2
*CAP
1 res[24] 0.000445099
2 *455:X 0.000445099
3 res[24] res[7] 0.000142856
4 res[23] res[24] 0
5 *429:A res[24] 0
*RES
1 *455:X res[24] 22.05 
*END

*D_NET *52 0.00205829
*CONN
*P res[25] O
*I *456:X O *D sky130_fd_sc_hd__buf_2
*CAP
1 res[25] 0.000763765
2 *456:X 0.000763765
3 res[25] res[26] 0
4 res[25] *452:A 2.59355e-05
5 res[21] res[25] 0.000504824
*RES
1 *456:X res[25] 30.6929 
*END

*D_NET *53 0.00220303
*CONN
*P res[26] O
*I *457:X O *D sky130_fd_sc_hd__buf_2
*CAP
1 res[26] 0.00110152
2 *457:X 0.00110152
3 res[25] res[26] 0
*RES
1 *457:X res[26] 34.05 
*END

*D_NET *54 0.00106967
*CONN
*P res[27] O
*I *458:X O *D sky130_fd_sc_hd__buf_2
*CAP
1 res[27] 0.000450756
2 *458:X 0.000450756
3 res[27] res[28] 0
4 *417:A res[27] 8.74238e-05
5 *418:A res[27] 8.07313e-05
*RES
1 *458:X res[27] 22.6571 
*END

*D_NET *55 0.0010936
*CONN
*P res[28] O
*I *459:X O *D sky130_fd_sc_hd__buf_2
*CAP
1 res[28] 0.000474415
2 *459:X 0.000474415
3 res[28] res[30] 0
4 res[27] res[28] 0
5 *417:A res[28] 0.000144773
*RES
1 *459:X res[28] 22.6571 
*END

*D_NET *56 0.00109597
*CONN
*P res[29] O
*I *460:X O *D sky130_fd_sc_hd__buf_2
*CAP
1 res[29] 0.000475949
2 *460:X 0.000475949
3 res[29] res[30] 0
4 res[29] res[8] 0
5 *417:A res[29] 0.000144075
*RES
1 *460:X res[29] 22.6571 
*END

*D_NET *57 0.000925211
*CONN
*P res[2] O
*I *461:X O *D sky130_fd_sc_hd__buf_2
*CAP
1 res[2] 0.000434632
2 *461:X 0.000434632
3 *422:A res[2] 2.71788e-05
4 *433:A res[2] 2.87684e-05
5 *29:19 res[2] 0
*RES
1 *461:X res[2] 22.7124 
*END

*D_NET *58 0.00109483
*CONN
*P res[30] O
*I *462:X O *D sky130_fd_sc_hd__buf_2
*CAP
1 res[30] 0.000475027
2 *462:X 0.000475027
3 res[28] res[30] 0
4 res[29] res[30] 0
5 *417:A res[30] 0.000144773
*RES
1 *462:X res[30] 22.6571 
*END

*D_NET *59 0.00100557
*CONN
*P res[31] O
*I *463:X O *D sky130_fd_sc_hd__buf_2
*CAP
1 res[31] 0.000491412
2 *463:X 0.000491412
3 res[31] res[8] 0
4 res[31] *463:A 2.27416e-05
5 *423:A res[31] 0
*RES
1 *463:X res[31] 22.6571 
*END

*D_NET *60 0.00243477
*CONN
*P res[3] O
*I *464:X O *D sky130_fd_sc_hd__buf_2
*CAP
1 res[3] 0.000647505
2 *464:X 0.000647505
3 res[3] res[4] 0
4 res[3] *464:A 0.000149911
5 res[3] *119:12 7.58664e-05
6 res[12] res[3] 4.20227e-05
7 *425:A res[3] 0.000170007
8 *430:A res[3] 0.000701957
9 *29:19 res[3] 0
*RES
1 *464:X res[3] 29.6123 
*END

*D_NET *61 0.00177856
*CONN
*P res[4] O
*I *465:X O *D sky130_fd_sc_hd__buf_2
*CAP
1 res[4] 0.000740405
2 *465:X 0.000740405
3 res[4] *442:A 3.4879e-05
4 res[4] *119:12 2.27416e-05
5 res[3] res[4] 0
6 *422:A res[4] 2.89114e-05
7 *427:A res[4] 0
8 *430:A res[4] 0
9 *29:19 res[4] 0.000211217
*RES
1 *465:X res[4] 25.7464 
*END

*D_NET *62 0.00101118
*CONN
*P res[5] O
*I *466:X O *D sky130_fd_sc_hd__buf_2
*CAP
1 res[5] 0.000360973
2 *466:X 0.000360973
3 res[12] res[5] 0
4 *420:A res[5] 9.71197e-05
5 *427:A res[5] 0.000192111
*RES
1 *466:X res[5] 21.6393 
*END

*D_NET *63 0.00123955
*CONN
*P res[6] O
*I *467:X O *D sky130_fd_sc_hd__buf_2
*CAP
1 res[6] 0.000309788
2 *467:X 0.000309788
3 res[6] *367:A 8.79661e-05
4 res[0] res[6] 0
5 res[23] res[6] 0.000210728
6 *414:A res[6] 0.000190087
7 *415:A res[6] 0.000131193
*RES
1 *467:X res[6] 23.6571 
*END

*D_NET *64 0.00284336
*CONN
*P res[7] O
*I *468:X O *D sky130_fd_sc_hd__buf_2
*CAP
1 res[7] 0.00121706
2 *468:X 0.00121706
3 res[7] *367:C 1.76039e-05
4 res[7] *125:8 0
5 res[0] res[7] 0
6 res[22] res[7] 0.000248788
7 res[24] res[7] 0.000142856
*RES
1 *468:X res[7] 45.5857 
*END

*D_NET *65 0.00105082
*CONN
*P res[8] O
*I *469:X O *D sky130_fd_sc_hd__buf_2
*CAP
1 res[8] 0.000475066
2 *469:X 0.000475066
3 res[29] res[8] 0
4 res[31] res[8] 0
5 *417:A res[8] 0.000100684
*RES
1 *469:X res[8] 22.9071 
*END

*D_NET *66 0.000897939
*CONN
*P res[9] O
*I *470:X O *D sky130_fd_sc_hd__buf_2
*CAP
1 res[9] 0.000397701
2 *470:X 0.000397701
3 *408:A res[9] 0
4 *423:A res[9] 0
5 *424:A res[9] 0.000102537
*RES
1 *470:X res[9] 22.3714 
*END

*D_NET *67 0.000582471
*CONN
*I *380:A I *D sky130_fd_sc_hd__and2_1
*I *382:B I *D sky130_fd_sc_hd__xnor2_1
*I *378:Y O *D sky130_fd_sc_hd__nand3_1
*CAP
1 *380:A 0
2 *382:B 0.000111137
3 *378:Y 5.46773e-05
4 *67:10 0.000165814
5 *382:B *462:A 2.59355e-05
6 *67:10 *380:B 6.5185e-05
7 *67:10 *105:14 9.10431e-06
8 *67:10 *163:14 0.000150618
*RES
1 *378:Y *67:10 20.2464 
2 *67:10 *382:B 11.0679 
3 *67:10 *380:A 9.3 
*END

*D_NET *68 0.000601782
*CONN
*I *380:B I *D sky130_fd_sc_hd__and2_1
*I *379:X O *D sky130_fd_sc_hd__a21o_1
*CAP
1 *380:B 0.00016262
2 *379:X 0.00016262
3 *380:B *105:14 0.000125736
4 *380:B *105:22 7.6507e-05
5 *380:B *163:14 9.11365e-06
6 *67:10 *380:B 6.5185e-05
*RES
1 *379:X *380:B 30.9036 
*END

*D_NET *69 0.00024007
*CONN
*I *383:B I *D sky130_fd_sc_hd__xor2_1
*I *381:X O *D sky130_fd_sc_hd__and4_1
*CAP
1 *383:B 9.14614e-05
2 *381:X 9.14614e-05
3 *383:B *463:A 5.71472e-05
*RES
1 *381:X *383:B 20.3679 
*END

*D_NET *70 0.000565067
*CONN
*I *386:B I *D sky130_fd_sc_hd__nor2_1
*I *385:Y O *D sky130_fd_sc_hd__a21oi_1
*CAP
1 *386:B 0.000116067
2 *385:Y 0.000116067
3 *386:B *385:B1 5.52302e-05
4 *386:B *119:25 2.13968e-05
5 *386:B *119:38 0.000128154
6 *425:A *386:B 0.000128154
*RES
1 *385:Y *386:B 30.2205 
*END

*D_NET *71 0.000873032
*CONN
*I *388:B I *D sky130_fd_sc_hd__nor2_1
*I *387:Y O *D sky130_fd_sc_hd__nor2_1
*CAP
1 *388:B 0.000153992
2 *387:Y 0.000153992
3 *388:B *339:C 0.000124674
4 *388:B *340:C 4.62138e-05
5 *388:B *79:10 8.00806e-05
6 *388:B *80:6 0.000270326
7 *388:B *117:14 2.26424e-05
8 *388:B *122:38 1.94879e-05
9 *388:B *123:12 1.62435e-06
*RES
1 *387:Y *388:B 31.8321 
*END

*D_NET *72 0.000395454
*CONN
*I *391:B I *D sky130_fd_sc_hd__xnor2_1
*I *389:Y O *D sky130_fd_sc_hd__nand2_1
*CAP
1 *391:B 0.000168375
2 *389:Y 0.000168375
3 *391:B *468:A 2.16394e-05
4 *391:B *125:8 2.50802e-06
5 *391:B *125:17 3.08664e-05