*SPEF "ieee 1481-1999"
*DESIGN "pcInc"
*DATE "00:56:37 Saturday May 16, 2026"
*VENDOR "The OpenROAD Project"
*PROGRAM "OpenROAD"
*VERSION "v2.0-16235-gedf00dff9"
*DESIGN_FLOW "NAME_SCOPE LOCAL" "PIN_CAP NONE"
*DIVIDER /
*DELIMITER :
*BUS_DELIMITER []
*T_UNIT 1 NS
*C_UNIT 1 PF
*R_UNIT 1 OHM
*L_UNIT 1 HENRY

*NAME_MAP
*3 pcInput[0]
*4 pcInput[10]
*5 pcInput[11]
*6 pcInput[12]
*7 pcInput[13]
*8 pcInput[14]
*9 pcInput[15]
*10 pcInput[16]
*11 pcInput[17]
*12 pcInput[18]
*13 pcInput[19]
*14 pcInput[1]
*15 pcInput[20]
*16 pcInput[21]
*17 pcInput[22]
*18 pcInput[23]
*19 pcInput[24]
*20 pcInput[25]
*21 pcInput[26]
*22 pcInput[27]
*23 pcInput[28]
*24 pcInput[29]
*25 pcInput[2]
*26 pcInput[30]
*27 pcInput[31]
*28 pcInput[3]
*29 pcInput[4]
*30 pcInput[5]
*31 pcInput[6]
*32 pcInput[7]
*33 pcInput[8]
*34 pcInput[9]
*35 res[0]
*36 res[10]
*37 res[11]
*38 res[12]
*39 res[13]
*40 res[14]
*41 res[15]
*42 res[16]
*43 res[17]
*44 res[18]
*45 res[19]
*46 res[1]
*47 res[20]
*48 res[21]
*49 res[22]
*50 res[23]
*51 res[24]
*52 res[25]
*53 res[26]
*54 res[27]
*55 res[28]
*56 res[29]
*57 res[2]
*58 res[30]
*59 res[31]
*60 res[3]
*61 res[4]
*62 res[5]
*63 res[6]
*64 res[7]
*65 res[8]
*66 res[9]
*67 _000_
*68 _001_
*69 _002_
*70 _003_
*71 _004_
*72 _005_
*73 _006_
*74 _007_
*75 _008_
*76 _009_
*77 _010_
*78 _011_
*79 _012_
*80 _013_
*81 _014_
*82 _015_
*83 _016_
*84 _017_
*85 _018_
*86 _019_
*87 _020_
*88 _021_
*89 _022_
*90 _023_
*91 _024_
*92 _025_
*93 _026_
*94 _027_
*95 _028_
*96 _029_
*97 _030_
*98 _031_
*99 _032_
*100 _033_
*101 _034_
*102 _035_
*103 _036_
*104 _037_
*105 _038_
*106 net1
*107 net10
*108 net11
*109 net12
*110 net13
*111 net14
*112 net15
*113 net16
*114 net17
*115 net18
*116 net19
*117 net2
*118 net20
*119 net21
*120 net22
*121 net23
*122 net24
*123 net25
*124 net26
*125 net27
*126 net28
*127 net29
*128 net3
*129 net30
*130 net31
*131 net32
*132 net33
*133 net34
*134 net35
*135 net36
*136 net37
*137 net38
*138 net39
*139 net4
*140 net40
*141 net41
*142 net42
*143 net43
*144 net44
*145 net45
*146 net46
*147 net47
*148 net48
*149 net49
*150 net5
*151 net50
*152 net51
*153 net52
*154 net53
*155 net54
*156 net55
*157 net56
*158 net57
*159 net58
*160 net59
*161 net6
*162 net60
*163 net61
*164 net62
*165 net7
*166 net8
*167 net9
*168 FILLER_0_29
*169 FILLER_0_41
*170 FILLER_0_57
*171 FILLER_0_63
*172 FILLER_0_73
*173 FILLER_10_22
*174 FILLER_10_25
*175 FILLER_10_29
*176 FILLER_10_32
*177 FILLER_10_43
*178 FILLER_10_46
*179 FILLER_10_49
*180 FILLER_10_52
*181 FILLER_10_62
*182 FILLER_11_16
*183 FILLER_11_44
*184 FILLER_11_9
*185 FILLER_12_27
*186 FILLER_12_29
*187 FILLER_12_57
*188 FILLER_12_70
*189 FILLER_1_51
*190 FILLER_1_55
*191 FILLER_1_57
*192 FILLER_2_26
*193 FILLER_2_29
*194 FILLER_2_38
*195 FILLER_2_41
*196 FILLER_2_44
*197 FILLER_2_47
*198 FILLER_2_50
*199 FILLER_2_53
*200 FILLER_3_20
*201 FILLER_3_23
*202 FILLER_3_26
*203 FILLER_3_29
*204 FILLER_3_37
*205 FILLER_3_40
*206 FILLER_3_43
*207 FILLER_3_46
*208 FILLER_3_49
*209 FILLER_3_52
*210 FILLER_3_55
*211 FILLER_3_57
*212 FILLER_3_6
*213 FILLER_3_60
*214 FILLER_3_74
*215 FILLER_4_18
*216 FILLER_4_37
*217 FILLER_4_46
*218 FILLER_4_49
*219 FILLER_4_52
*220 FILLER_4_55
*221 FILLER_4_58
*222 FILLER_4_61
*223 FILLER_4_64
*224 FILLER_5_10
*225 FILLER_5_13
*226 FILLER_5_16
*227 FILLER_5_19
*228 FILLER_5_27
*229 FILLER_5_38
*230 FILLER_5_41
*231 FILLER_5_44
*232 FILLER_5_47
*233 FILLER_5_50
*234 FILLER_5_53
*235 FILLER_5_73
*236 FILLER_6_11
*237 FILLER_6_17
*238 FILLER_6_20
*239 FILLER_6_23
*240 FILLER_6_26
*241 FILLER_6_29
*242 FILLER_6_32
*243 FILLER_6_35
*244 FILLER_6_38
*245 FILLER_6_41
*246 FILLER_6_44
*247 FILLER_6_47
*248 FILLER_6_50
*249 FILLER_6_53
*250 FILLER_6_56
*251 FILLER_6_59
*252 FILLER_6_70
*253 FILLER_7_10
*254 FILLER_7_13
*255 FILLER_7_24
*256 FILLER_7_27
*257 FILLER_7_30
*258 FILLER_7_33
*259 FILLER_7_36
*260 FILLER_7_39
*261 FILLER_7_42
*262 FILLER_7_45
*263 FILLER_7_48
*264 FILLER_7_51
*265 FILLER_7_54
*266 FILLER_7_57
*267 FILLER_7_60
*268 FILLER_7_66
*269 FILLER_7_69
*270 FILLER_8_14
*271 FILLER_8_24
*272 FILLER_8_27
*273 FILLER_8_29
*274 FILLER_8_32
*275 FILLER_8_35
*276 FILLER_8_38
*277 FILLER_8_41
*278 FILLER_8_44
*279 FILLER_8_47
*280 FILLER_8_50
*281 FILLER_8_6
*282 FILLER_8_70
*283 FILLER_9_20
*284 FILLER_9_23
*285 FILLER_9_26
*286 FILLER_9_29
*287 FILLER_9_32
*288 FILLER_9_35
*289 FILLER_9_38
*290 FILLER_9_41
*291 FILLER_9_44
*292 FILLER_9_47
*293 FILLER_9_50
*294 FILLER_9_53
*295 FILLER_9_57
*296 FILLER_9_70
*297 PHY_EDGE_ROW_0_Left_13
*298 PHY_EDGE_ROW_0_Right_0
*299 PHY_EDGE_ROW_10_Left_23
*300 PHY_EDGE_ROW_10_Right_10
*301 PHY_EDGE_ROW_11_Left_24
*302 PHY_EDGE_ROW_11_Right_11
*303 PHY_EDGE_ROW_12_Left_25
*304 PHY_EDGE_ROW_12_Right_12
*305 PHY_EDGE_ROW_1_Left_14
*306 PHY_EDGE_ROW_1_Right_1
*307 PHY_EDGE_ROW_2_Left_15
*308 PHY_EDGE_ROW_2_Right_2
*309 PHY_EDGE_ROW_3_Left_16
*310 PHY_EDGE_ROW_3_Right_3
*311 PHY_EDGE_ROW_4_Left_17
*312 PHY_EDGE_ROW_4_Right_4
*313 PHY_EDGE_ROW_5_Left_18
*314 PHY_EDGE_ROW_5_Right_5
*315 PHY_EDGE_ROW_6_Left_19
*316 PHY_EDGE_ROW_6_Right_6
*317 PHY_EDGE_ROW_7_Left_20
*318 PHY_EDGE_ROW_7_Right_7
*319 PHY_EDGE_ROW_8_Left_21
*320 PHY_EDGE_ROW_8_Right_8
*321 PHY_EDGE_ROW_9_Left_22
*322 PHY_EDGE_ROW_9_Right_9
*323 TAP_TAPCELL_ROW_0_26
*324 TAP_TAPCELL_ROW_0_27
*325 TAP_TAPCELL_ROW_10_37
*326 TAP_TAPCELL_ROW_11_38
*327 TAP_TAPCELL_ROW_12_39
*328 TAP_TAPCELL_ROW_12_40
*329 TAP_TAPCELL_ROW_1_28
*330 TAP_TAPCELL_ROW_2_29
*331 TAP_TAPCELL_ROW_3_30
*332 TAP_TAPCELL_ROW_4_31
*333 TAP_TAPCELL_ROW_5_32
*334 TAP_TAPCELL_ROW_6_33
*335 TAP_TAPCELL_ROW_7_34
*336 TAP_TAPCELL_ROW_8_35
*337 TAP_TAPCELL_ROW_9_36
*338 _039_
*339 _040_
*340 _041_
*341 _042_
*342 _043_
*343 _044_
*344 _045_
*345 _046_
*346 _047_
*347 _048_
*348 _049_
*349 _050_
*350 _051_
*351 _052_
*352 _053_
*353 _054_
*354 _055_
*355 _056_
*356 _057_
*357 _058_
*358 _059_
*359 _060_
*360 _061_
*361 _062_
*362 _063_
*363 _064_
*364 _065_
*365 _066_
*366 _067_
*367 _068_
*368 _069_
*369 _070_
*370 _071_
*371 _072_
*372 _073_
*373 _074_
*374 _075_
*375 _076_
*376 _077_
*377 _078_
*378 _079_
*379 _080_
*380 _081_
*381 _082_
*382 _083_
*383 _084_
*384 _085_
*385 _086_
*386 _087_
*387 _088_
*388 _089_
*389 _090_
*390 _091_
*391 _092_
*392 _093_
*393 _094_
*394 _095_
*395 _096_
*396 _097_
*397 _098_
*398 _099_
*399 _100_
*400 _101_
*401 _102_
*402 _103_
*403 _104_
*404 _105_
*405 _106_
*406 _107_
*407 _108_
*408 _109_
*409 input1
*410 input10
*411 input11
*412 input12
*413 input13
*414 input14
*415 input15
*416 input16
*417 input17
*418 input18
*419 input19
*420 input2
*421 input20
*422 input21
*423 input22
*424 input23
*425 input24
*426 input25
*427 input26
*428 input27
*429 input28
*430 input29
*431 input3
*432 input30
*433 input4
*434 input5
*435 input6
*436 input7
*437 input8
*438 input9
*439 output31
*440 output32
*441 output33
*442 output34
*443 output35
*444 output36
*445 output37
*446 output38
*447 output39
*448 output40
*449 output41
*450 output42
*451 output43
*452 output44
*453 output45
*454 output46
*455 output47
*456 output48
*457 output49
*458 output50
*459 output51
*460 output52
*461 output53
*462 output54
*463 output55
*464 output56
*465 output57
*466 output58
*467 output59
*468 output60
*469 output61
*470 output62

*PORTS
pcInput[0] I
pcInput[10] I
pcInput[11] I
pcInput[12] I
pcInput[13] I
pcInput[14] I
pcInput[15] I
pcInput[16] I
pcInput[17] I
pcInput[18] I
pcInput[19] I
pcInput[1] I
pcInput[20] I
pcInput[21] I
pcInput[22] I
pcInput[23] I
pcInput[24] I
pcInput[25] I
pcInput[26] I
pcInput[27] I
pcInput[28] I
pcInput[29] I
pcInput[2] I
pcInput[30] I
pcInput[31] I
pcInput[3] I
pcInput[4] I
pcInput[5] I
pcInput[6] I
pcInput[7] I
pcInput[8] I
pcInput[9] I
res[0] O
res[10] O
res[11] O
res[12] O
res[13] O
res[14] O
res[15] O
res[16] O
res[17] O
res[18] O
res[19] O
res[1] O
res[20] O
res[21] O
res[22] O
res[23] O
res[24] O
res[25] O
res[26] O
res[27] O
res[28] O
res[29] O
res[2] O
res[30] O
res[31] O
res[3] O
res[4] O
res[5] O
res[6] O
res[7] O
res[8] O
res[9] O

*D_NET *3 0.00316039
*CONN
*P pcInput[0] I
*I *407:A I *D sky130_fd_sc_hd__clkbuf_1
*CAP
1 pcInput[0] 0.000733219
2 *407:A 0
3 *3:13 0.000733219
4 *3:13 res[0] 6.23473e-05
5 *3:13 res[22] 0.000234595
6 *3:13 *18:15 0.00139701
7 *3:13 *110:14 0
*RES
1 pcInput[0] *3:13 42.7365 
2 *3:13 *407:A 23 
*END

*D_NET *4 0.00212705
*CONN
*P pcInput[10] I
*I *409:A I *D sky130_fd_sc_hd__buf_1
*CAP
1 pcInput[10] 0.000614411
2 *409:A 0
3 *4:11 0.000614411
4 *4:11 *427:A 0
5 *4:11 *28:13 2.75733e-06
6 *4:11 *33:11 0
7 *4:11 *38:8 0.000280293
8 *4:11 *117:12 0
9 *4:11 *119:38 2.84912e-05
10 *4:11 *123:10 0.000214777
11 *4:11 *158:10 0.000371908
*RES
1 pcInput[10] *4:11 30.1007 
2 *4:11 *409:A 23 
*END

*D_NET *5 0.00149614
*CONN
*P pcInput[11] I
*I *420:A I *D sky130_fd_sc_hd__clkbuf_1
*CAP
1 pcInput[11] 0.000662997
2 *420:A 0
3 *5:11 0.000662997
4 *5:11 res[5] 9.67842e-05
5 *5:11 *392:C 1.83564e-05
6 *5:11 *427:A 0
7 *5:11 *432:A 0
8 *5:11 *442:A 0
9 *5:11 *80:34 5.50049e-05
*RES
1 pcInput[11] *5:11 28.2779 
2 *5:11 *420:A 23 
*END

*D_NET *6 0.000745618
*CONN
*P pcInput[12] I
*I *431:A I *D sky130_fd_sc_hd__buf_1
*CAP
1 pcInput[12] 0.000347742
2 *431:A 0
3 *6:17 0.000347742
4 *6:17 res[13] 2.43221e-05
5 *6:17 *7:13 2.12457e-05
6 *6:17 *39:14 4.56684e-06
7 *6:17 *76:8 0
*RES
1 pcInput[12] *6:17 28.2148 
2 *6:17 *431:A 23 
*END

*D_NET *7 0.00080893
*CONN
*P pcInput[13] I
*I *433:A I *D sky130_fd_sc_hd__clkbuf_1
*CAP
1 pcInput[13] 0.000379886
2 *433:A 0
3 *7:13 0.000379886
4 *7:13 res[2] 2.79122e-05
5 *7:13 *29:19 0
6 *7:13 *76:8 0
7 *6:17 *7:13 2.12457e-05
*RES
1 pcInput[13] *7:13 29.346 
2 *7:13 *433:A 23 
*END

*D_NET *8 0.00313104
*CONN
*P pcInput[14] I
*I *434:A I *D sky130_fd_sc_hd__buf_1
*CAP
1 pcInput[14] 0.000791027
2 *434:A 0
3 *8:11 0.000791027
4 *8:11 res[17] 4.79628e-05
5 *8:11 *405:B 0
6 *8:11 *9:15 3.88291e-05
7 *8:11 *10:13 0
8 *8:11 *14:11 0.000171776
9 *8:11 *24:17 0.000910992
10 *8:11 *27:13 0
11 *8:11 *43:10 0
12 *8:11 *77:8 0.000379422
13 *8:11 *78:10 0
*RES
1 pcInput[14] *8:11 39.1265 
2 *8:11 *434:A 23 
*END

*D_NET *9 0.00238072
*CONN
*P pcInput[15] I
*I *435:A I *D sky130_fd_sc_hd__clkbuf_1
*CAP
1 pcInput[15] 0.000856115
2 *435:A 0
3 *9:15 0.000856115
4 *9:15 res[15] 2.55411e-05
5 *9:15 res[1] 0
6 *9:15 *349:B 0
7 *9:15 *10:13 4.17018e-05
8 *9:15 *24:17 9.58714e-05
9 *9:15 *42:10 0.000187252
10 *9:15 *43:10 0.000214121
11 *9:15 *118:6 6.51763e-05
12 *9:15 *136:8 0
13 *8:11 *9:15 3.88291e-05
*RES
1 pcInput[15] *9:15 40.0583 
2 *9:15 *435:A 23 
*END

*D_NET *10 0.00236096
*CONN
*P pcInput[16] I
*I *436:A I *D sky130_fd_sc_hd__clkbuf_1
*CAP
1 pcInput[16] 0.000710148
2 *436:A 0
3 *10:13 0.000710148
4 *10:13 res[15] 6.20049e-05
5 *10:13 *24:17 0.000603562
6 *10:13 *77:8 6.781e-05
7 *10:13 *136:8 0.000165583
8 *10:13 *150:14 0
9 *8:11 *10:13 0
10 *9:15 *10:13 4.17018e-05
*RES
1 pcInput[16] *10:13 35.7027 
2 *10:13 *436:A 23 
*END

*D_NET *11 0.0015754
*CONN
*P pcInput[17] I
*I *437:A I *D sky130_fd_sc_hd__clkbuf_1
*CAP
1 pcInput[17] 0.000639851
2 *437:A 0
3 *11:11 0.000639851
4 *11:11 res[14] 5.99691e-05
5 *11:11 res[15] 0
6 *11:11 res[16] 3.49463e-05
7 *11:11 *77:8 0
8 *11:11 *87:10 0.000200785
9 *11:11 *150:8 0
*RES
1 pcInput[17] *11:11 27.3167 
2 *11:11 *437:A 23 
*END

*D_NET *12 0.00246328
*CONN
*P pcInput[18] I
*I *438:A I *D sky130_fd_sc_hd__clkbuf_1
*CAP
1 pcInput[18] 0.00103164
2 *438:A 0
3 *12:11 0.00103164
4 *12:11 res[0] 0
5 *12:11 res[10] 7.70813e-05
6 *12:11 *413:A 0
7 *12:11 *453:A 0.000149803
8 *12:11 *19:19 6.96124e-05
9 *12:11 *96:30 5.44006e-05
10 *12:11 *100:14 0
11 *12:11 *111:14 3.92407e-05
12 *12:11 *147:10 9.86551e-06
*RES
1 pcInput[18] *12:11 29.0601 
2 *12:11 *438:A 23 
*END

*D_NET *13 0.000519424
*CONN
*P pcInput[19] I
*I *410:A I *D sky130_fd_sc_hd__buf_1
*CAP
1 pcInput[19] 0.000166178
2 *410:A 0.000166178
3 *410:A *411:A 8.06147e-05
4 *410:A *16:11 7.82427e-05
5 *410:A *109:8 2.82105e-05
*RES
1 pcInput[19] *410:A 47.4311 
*END

*D_NET *14 0.00164127
*CONN
*P pcInput[1] I
*I *408:A I *D sky130_fd_sc_hd__clkbuf_1
*CAP
1 pcInput[1] 0.000501602
2 *408:A 0
3 *14:11 0.000501602
4 *14:11 res[9] 0
5 *14:11 *405:B 5.67058e-05
6 *14:11 *447:A 0.000315857
7 *14:11 *450:A 4.04206e-05
8 *14:11 *27:13 0
9 *14:11 *164:16 0
10 *14:11 *165:42 5.3304e-05
11 *8:11 *14:11 0.000171776
*RES
1 pcInput[1] *14:11 28.3814 
2 *14:11 *408:A 23 
*END

*D_NET *15 0.000495517
*CONN
*P pcInput[20] I
*I *411:A I *D sky130_fd_sc_hd__clkbuf_1
*CAP
1 pcInput[20] 0.000157174
2 *411:A 0.000157174
3 *411:A res[19] 7.23435e-05
4 *411:A *107:8 2.82105e-05
5 *410:A *411:A 8.06147e-05
*RES
1 pcInput[20] *411:A 47.4311 
*END

*D_NET *16 0.00122375
*CONN
*P pcInput[21] I
*I *412:A I *D sky130_fd_sc_hd__clkbuf_1
*CAP
1 pcInput[21] 0.000416875
2 *412:A 0
3 *16:11 0.000416875
4 *16:11 res[21] 7.90067e-05
5 *16:11 *23:15 8.06147e-05
6 *16:11 *109:8 0.00015214
7 *16:11 *143:14 0
8 *410:A *16:11 7.82427e-05
*RES
1 pcInput[21] *16:11 28.6568 
2 *16:11 *412:A 23 
*END

*D_NET *17 0.00137604
*CONN
*P pcInput[22] I
*I *413:A I *D sky130_fd_sc_hd__buf_1
*CAP
1 pcInput[22] 0.000524866
2 *413:A 0.000524866
3 *413:A res[10] 7.87398e-05
4 *413:A res[18] 8.68758e-05
5 *413:A *355:B 1.14452e-05
6 *413:A *96:12 9.07675e-05
7 *413:A *110:10 5.8477e-05
8 *12:11 *413:A 0
*RES
1 pcInput[22] *413:A 49.7929 
*END

*D_NET *18 0.00458391
*CONN
*P pcInput[23] I
*I *414:A I *D sky130_fd_sc_hd__clkbuf_1
*CAP
1 pcInput[23] 0.000965485
2 *414:A 7.07594e-05
3 *18:15 0.00103624
4 *414:A *363:B 4.34745e-05
5 *414:A *96:26 0.000101042
6 *414:A *145:8 5.50049e-05
7 *18:15 res[0] 0
8 *18:15 res[6] 0.00019313
9 *18:15 *363:A 2.93747e-05
10 *18:15 *363:B 3.61695e-05
11 *18:15 *19:19 0.000601203
12 *18:15 *50:14 0
13 *18:15 *110:14 0
14 *18:15 *130:10 5.50106e-05
15 *3:13 *18:15 0.00139701
*RES
1 pcInput[23] *18:15 48.9952 
2 *18:15 *414:A 25.0714 
*END

*D_NET *19 0.00358344
*CONN
*P pcInput[24] I
*I *415:A I *D sky130_fd_sc_hd__clkbuf_1
*CAP
1 pcInput[24] 0.00100315
2 *415:A 0
3 *19:19 0.00100315
4 *19:19 res[0] 7.19906e-05
5 *19:19 res[10] 5.04995e-05
6 *19:19 res[6] 0.000136013
7 *19:19 *364:A1 1.03955e-05
8 *19:19 *366:A 8.68929e-05
9 *19:19 *367:A 0
10 *19:19 *440:A 0.000267173
11 *19:19 *110:14 0
12 *19:19 *110:16 0
13 *19:19 *111:14 9.23011e-05
14 *19:19 *112:10 0.000191068
15 *19:19 *130:10 0
16 *12:11 *19:19 6.96124e-05
17 *18:15 *19:19 0.000601203
*RES
1 pcInput[24] *19:19 42.6389 
2 *19:19 *415:A 23 
*END

*D_NET *20 0.00313408
*CONN
*P pcInput[25] I
*I *416:A I *D sky130_fd_sc_hd__clkbuf_1
*CAP
1 pcInput[25] 0.00105317
2 *416:A 0
3 *20:17 0.00105317
4 *20:17 *459:A 9.84851e-05
5 *20:17 *21:15 0.000174739
6 *20:17 *22:11 0.00024153
7 *20:17 *23:15 0.00013171
8 *20:17 *113:10 0.00018325
9 *20:17 *114:16 0.000198028
*RES
1 pcInput[25] *20:17 36.1678 
2 *20:17 *416:A 23 
*END

*D_NET *21 0.00396432
*CONN
*P pcInput[26] I
*I *417:A I *D sky130_fd_sc_hd__buf_1
*CAP
1 pcInput[26] 0.000973322
2 *417:A 0
3 *21:15 0.000973322
4 *21:15 res[20] 8.16312e-05
5 *21:15 res[27] 9.11667e-05
6 *21:15 res[28] 0.000143655
7 *21:15 res[29] 0.000145236
8 *21:15 res[30] 0.000143655
9 *21:15 res[8] 0.000100805
10 *21:15 *22:11 0.000534925
11 *21:15 *114:16 0.000601858
12 *20:17 *21:15 0.000174739
*RES
1 pcInput[26] *21:15 41.8228 
2 *21:15 *417:A 23 
*END

*D_NET *22 0.00289603
*CONN
*P pcInput[27] I
*I *418:A I *D sky130_fd_sc_hd__clkbuf_1
*CAP
1 pcInput[27] 0.000668976
2 *418:A 0
3 *22:11 0.000668976
4 *22:11 res[21] 0
5 *22:11 res[27] 8.1796e-05
6 *22:11 *459:A 9.84851e-05
7 *22:11 *47:8 0.000459388
8 *22:11 *143:14 0.00014196
9 *20:17 *22:11 0.00024153
10 *21:15 *22:11 0.000534925
*RES
1 pcInput[27] *22:11 35.0514 
2 *22:11 *418:A 23 
*END

*D_NET *23 0.00174086
*CONN
*P pcInput[28] I
*I *419:A I *D sky130_fd_sc_hd__clkbuf_1
*CAP
1 pcInput[28] 0.000590621
2 *419:A 0
3 *23:15 0.000590621
4 *23:15 *372:B 5.94125e-05
5 *23:15 *101:78 2.24608e-05
6 *23:15 *116:8 6.35785e-05
7 *23:15 *143:14 6.36916e-05
8 *23:15 *151:8 0
9 *23:15 *151:18 0.000138145
10 *23:15 *152:8 0
11 *16:11 *23:15 8.06147e-05
12 *20:17 *23:15 0.00013171
*RES
1 pcInput[28] *23:15 29.0537 
2 *23:15 *419:A 23 
*END

*D_NET *24 0.00384657
*CONN
*P pcInput[29] I
*I *421:A I *D sky130_fd_sc_hd__buf_1
*CAP
1 pcInput[29] 0.000690798
2 *421:A 0
3 *24:17 0.000396117
4 *24:11 0.00108691
5 *24:11 res[1] 0
6 *24:11 *27:13 5.47808e-05
7 *24:11 *46:8 0
8 *24:17 *43:10 0
9 *24:17 *118:6 7.53384e-06
10 *8:11 *24:17 0.000910992
11 *9:15 *24:17 9.58714e-05
12 *10:13 *24:17 0.000603562
*RES
1 pcInput[29] *24:11 44.1271 
2 *24:11 *24:17 28.2157 
3 *24:17 *421:A 23 
*END

*D_NET *25 0.000703957
*CONN
*P pcInput[2] I
*I *422:A I *D sky130_fd_sc_hd__dlymetal6s2s_1
*CAP
1 pcInput[2] 0.000313597
2 *422:A 0
3 *25:17 0.000313597
4 *25:17 res[2] 2.61329e-05
5 *25:17 *28:13 2.12457e-05
6 *25:17 *29:19 0
7 *25:17 *61:8 2.93845e-05
*RES
1 pcInput[2] *25:17 27.5105 
2 *25:17 *422:A 23 
*END

*D_NET *26 0.00104296
*CONN
*P pcInput[30] I
*I *423:A I *D sky130_fd_sc_hd__clkbuf_1
*CAP
1 pcInput[30] 0.000419736
2 *423:A 0.000419736
3 *423:A res[31] 0
4 *423:A res[9] 0
5 *423:A *27:13 0.000200717
6 *423:A *156:10 2.76611e-06
*RES
1 pcInput[30] *423:A 48.3779 
*END

*D_NET *27 0.00233374
*CONN
*P pcInput[31] I
*I *424:A I *D sky130_fd_sc_hd__clkbuf_1
*CAP
1 pcInput[31] 0.00077942
2 *424:A 4.3113e-05
3 *27:13 0.000822533
4 *424:A *164:16 0.00010018
5 *27:13 res[9] 0.000103966
6 *27:13 *43:10 0.000195921
7 *27:13 *138:10 3.31127e-05
8 *423:A *27:13 0.000200717
9 *8:11 *27:13 0
10 *14:11 *27:13 0
11 *24:11 *27:13 5.47808e-05
*RES
1 pcInput[31] *27:13 49.0986 
2 *27:13 *424:A 39.0979 
*END

*D_NET *28 0.00345645
*CONN
*P pcInput[3] I
*I *425:A I *D sky130_fd_sc_hd__buf_1
*CAP
1 pcInput[3] 0.00113177
2 *425:A 0
3 *28:13 0.00113177
4 *28:13 res[12] 0
5 *28:13 res[3] 0.000170143
6 *28:13 *29:19 5.50106e-05
7 *28:13 *33:11 0
8 *28:13 *70:10 0.000141879
9 *28:13 *119:38 2.97762e-05
10 *28:13 *123:10 0
11 *28:13 *133:8 0.000637247
12 *28:13 *139:21 5.50106e-05
13 *28:13 *158:10 7.98437e-05
14 *4:11 *28:13 2.75733e-06
15 *25:17 *28:13 2.12457e-05
*RES
1 pcInput[3] *28:13 39.2926 
2 *28:13 *425:A 23 
*END

*D_NET *29 0.00399547
*CONN
*P pcInput[4] I
*I *426:A I *D sky130_fd_sc_hd__clkbuf_1
*CAP
1 pcInput[4] 0.000460233
2 *426:A 0
3 *29:19 0.000942975
4 *29:11 0.00140321
5 *29:11 *30:11 0.000220047
6 *29:19 res[3] 0
7 *29:19 res[4] 0.000220396
8 *29:19 *33:11 0
9 *29:19 *57:10 0
10 *29:19 *76:8 1.19692e-05
11 *29:19 *119:10 0.000227497
12 *29:19 *122:10 6.08617e-05
13 *29:19 *127:10 0.000185434
14 *29:19 *139:8 5.41288e-05
15 *29:19 *139:21 0.000153713
16 *29:19 *157:8 0
17 *7:13 *29:19 0
18 *25:17 *29:19 0
19 *28:13 *29:19 5.50106e-05
*RES
1 pcInput[4] *29:11 40.1293 
2 *29:11 *29:19 36.7707 
3 *29:19 *426:A 23 
*END

*D_NET *30 0.00348734
*CONN
*P pcInput[5] I
*I *427:A I *D sky130_fd_sc_hd__clkbuf_1
*CAP
1 pcInput[5] 0.000893853
2 *427:A 0.000426494
3 *30:11 0.00132035
4 *427:A res[5] 0.000200707
5 *427:A *392:C 0
6 *427:A *80:34 0
7 *427:A *80:52 0
8 *427:A *117:12 0.00016638
9 *427:A *119:57 0.000171906
10 *427:A *159:8 8.76088e-05
11 *30:11 res[4] 0
12 *4:11 *427:A 0
13 *5:11 *427:A 0
14 *29:11 *30:11 0.000220047
*RES
1 pcInput[5] *30:11 47.5036 
2 *30:11 *427:A 49.4136 
*END

*D_NET *31 0.00108675
*CONN
*P pcInput[6] I
*I *428:A I *D sky130_fd_sc_hd__buf_1
*CAP
1 pcInput[6] 0.000537309
2 *428:A 0.000537309
3 *428:A *432:A 0
4 *428:A *32:9 0
5 *428:A *72:10 3.7122e-06
6 *428:A *125:8 6.17437e-06
7 *428:A *162:10 2.24366e-06
*RES
1 pcInput[6] *428:A 48.5643 
*END

*D_NET *32 0.00143221
*CONN
*P pcInput[7] I
*I *429:A I *D sky130_fd_sc_hd__buf_1
*CAP
1 pcInput[7] 0.000633908
2 *429:A 0
3 *32:9 0.000633908
4 *32:9 res[24] 0
5 *32:9 *453:A 0
6 *32:9 *126:8 2.93845e-05
7 *32:9 *160:8 7.88926e-05
8 *32:9 *162:10 5.61207e-05
9 *428:A *32:9 0
*RES
1 pcInput[7] *32:9 28.4436 
2 *32:9 *429:A 23 
*END

*D_NET *33 0.00300974
*CONN
*P pcInput[8] I
*I *430:A I *D sky130_fd_sc_hd__clkbuf_1
*CAP
1 pcInput[8] 0.000648345
2 *430:A 0
3 *33:11 0.000648345
4 *33:11 res[3] 0.000777857
5 *33:11 res[4] 0
6 *33:11 *400:A2 1.14452e-05
7 *33:11 *76:8 0
8 *33:11 *122:10 0.000342656
9 *33:11 *133:8 0.000567363
10 *33:11 *157:8 1.37246e-05
11 *4:11 *33:11 0
12 *28:13 *33:11 0
13 *29:19 *33:11 0
*RES
1 pcInput[8] *33:11 33.7464 
2 *33:11 *430:A 23 
*END

*D_NET *34 0.00116368
*CONN
*P pcInput[9] I
*I *432:A I *D sky130_fd_sc_hd__clkbuf_1
*CAP
1 pcInput[9] 0.000481037
2 *432:A 0.000481037
3 *432:A *389:B 0.000100805
4 *432:A *125:17 0.000100805
5 *428:A *432:A 0
6 *5:11 *432:A 0
*RES
1 pcInput[9] *432:A 48.4193 
*END

*D_NET *35 0.00268138
*CONN
*P res[0] O
*I *439:X O *D sky130_fd_sc_hd__buf_2
*CAP
1 res[0] 0.000424152
2 *439:X 0.000372394
3 *35:8 0.000796546
4 *35:8 res[6] 0
5 *35:8 *367:A 9.61682e-05
6 *35:8 *367:C 1.44813e-05
7 *35:8 *50:14 0.000349246
8 *35:8 *64:12 0
9 *35:8 *110:14 1.14452e-05
10 *35:8 *110:16 4.49227e-05
11 *35:8 *111:44 8.04817e-05
12 *35:8 *146:10 0.000357201
13 *3:13 res[0] 6.23473e-05
14 *12:11 res[0] 0
15 *18:15 res[0] 0
16 *19:19 res[0] 7.19906e-05
*RES
1 *439:X *35:8 48.1811 
2 *35:8 res[0] 9.27307 
*END

*D_NET *36 0.000682771
*CONN
*P res[10] O
*I *440:X O *D sky130_fd_sc_hd__buf_2
*CAP
1 res[10] 0.000236117
2 *440:X 0.000236117
3 res[10] *110:14 0
4 res[10] *110:16 4.21594e-06
5 *413:A res[10] 7.87398e-05
6 *12:11 res[10] 7.70813e-05
7 *19:19 res[10] 5.04995e-05
*RES
1 *440:X res[10] 47.5169 
*END

*D_NET *37 0.000800668
*CONN
*P res[11] O
*I *441:X O *D sky130_fd_sc_hd__buf_2
*CAP
1 res[11] 0.000345949
2 *441:X 0.000345949
3 res[11] res[13] 1.5289e-05
4 res[11] res[14] 5.82094e-05
5 res[11] *401:A 2.26497e-05
6 res[11] *39:14 1.26232e-05
*RES
1 *441:X res[11] 47.5083 
*END

*D_NET *38 0.00229739
*CONN
*P res[12] O
*I *442:X O *D sky130_fd_sc_hd__buf_2
*CAP
1 res[12] 0.000548744
2 *442:X 0.000440046
3 *38:8 0.00098879
4 res[12] res[3] 3.95131e-05
5 *38:8 res[5] 0
6 *4:11 *38:8 0.000280293
7 *28:13 res[12] 0
*RES
1 *442:X *38:8 49.5896 
2 *38:8 res[12] 10.1317 
*END

*D_NET *39 0.000763907
*CONN
*P res[13] O
*I *443:X O *D sky130_fd_sc_hd__buf_2
*CAP
1 res[13] 7.58295e-05
2 *443:X 0.000277724
3 *39:14 0.000353553
4 res[11] res[13] 1.5289e-05
5 res[11] *39:14 1.26232e-05
6 *6:17 res[13] 2.43221e-05
7 *6:17 *39:14 4.56684e-06
*RES
1 *443:X *39:14 49.9 
2 *39:14 res[13] 0.382667 
*END

*D_NET *40 0.000887123
*CONN
*P res[14] O
*I *444:X O *D sky130_fd_sc_hd__buf_2
*CAP
1 res[14] 0.000107122
2 *444:X 0.000256918
3 *40:12 0.00036404
4 *40:12 *402:B 0
5 *40:12 *135:8 4.08641e-05
6 res[11] res[14] 5.82094e-05
7 *11:11 res[14] 5.99691e-05
*RES
1 *444:X *40:12 49.7804 
2 *40:12 res[14] 0.586133 
*END

*D_NET *41 0.000943506
*CONN
*P res[15] O
*I *445:X O *D sky130_fd_sc_hd__buf_2
*CAP
1 res[15] 0.000307249
2 *445:X 0.000307249
3 res[15] res[16] 3.49463e-05
4 res[15] *42:10 0.000136738
5 res[15] *136:8 6.97776e-05
6 *9:15 res[15] 2.55411e-05
7 *10:13 res[15] 6.20049e-05
8 *11:11 res[15] 0
*RES
1 *445:X res[15] 49.2716 
*END

*D_NET *42 0.00129415
*CONN
*P res[16] O
*I *446:X O *D sky130_fd_sc_hd__buf_2
*CAP
1 res[16] 5.25196e-05
2 *446:X 0.000397612
3 *42:10 0.000450131
4 res[15] res[16] 3.49463e-05
5 res[15] *42:10 0.000136738
6 *9:15 *42:10 0.000187252
7 *11:11 res[16] 3.49463e-05
*RES
1 *446:X *42:10 45.3432 
2 *42:10 res[16] 8.32853 
*END

*D_NET *43 0.00179757
*CONN
*P res[17] O
*I *447:X O *D sky130_fd_sc_hd__buf_2
*CAP
1 res[17] 0.000126751
2 *447:X 0.000450314
3 *43:10 0.000577066
4 *43:10 res[1] 0
5 *43:10 *46:8 0.000185434
6 *8:11 res[17] 4.79628e-05
7 *8:11 *43:10 0
8 *9:15 *43:10 0.000214121
9 *24:17 *43:10 0
10 *27:13 *43:10 0.000195921
*RES
1 *447:X *43:10 49.8796 
2 *43:10 res[17] 8.50027 
*END

*D_NET *44 0.000522522
*CONN
*P res[18] O
*I *448:X O *D sky130_fd_sc_hd__buf_2
*CAP
1 res[18] 0.000169007
2 *448:X 0.000169007
3 res[18] res[19] 8.73764e-05
4 res[18] *141:10 1.02561e-05
5 *413:A res[18] 8.68758e-05
*RES
1 *448:X res[18] 47.1648 
*END

*D_NET *45 0.000533429
*CONN
*P res[19] O
*I *449:X O *D sky130_fd_sc_hd__buf_2
*CAP
1 res[19] 0.000174504
2 *449:X 0.000174504
3 res[19] *107:12 2.47015e-05
4 res[18] res[19] 8.73764e-05
5 *411:A res[19] 7.23435e-05
*RES
1 *449:X res[19] 47.1648 
*END

*D_NET *46 0.00194643
*CONN
*P res[1] O
*I *450:X O *D sky130_fd_sc_hd__buf_2
*CAP
1 res[1] 0.000415295
2 *450:X 0.00041596
3 *46:8 0.000831255
4 *46:8 *447:A 9.84851e-05
5 *9:15 res[1] 0
6 *24:11 res[1] 0
7 *24:11 *46:8 0
8 *43:10 res[1] 0
9 *43:10 *46:8 0.000185434
*RES
1 *450:X *46:8 44.3386 
2 *46:8 res[1] 8.7 
*END

*D_NET *47 0.0014019
*CONN
*P res[20] O
*I *451:X O *D sky130_fd_sc_hd__buf_2
*CAP
1 res[20] 0.000194781
2 *451:X 0.000129719
3 *47:8 0.0003245
4 res[20] res[21] 5.71028e-05
5 *47:8 res[21] 0.000154777
6 *21:15 res[20] 8.16312e-05
7 *22:11 *47:8 0.000459388
*RES
1 *451:X *47:8 43.9554 
2 *47:8 res[20] 8.84373 
*END

*D_NET *48 0.00235826
*CONN
*P res[21] O
*I *452:X O *D sky130_fd_sc_hd__buf_2
*CAP
1 res[21] 0.000676643
2 *452:X 0.000103537
3 *48:8 0.00078018
4 res[21] res[25] 0.000365957
5 res[21] *143:14 0
6 *48:8 *52:8 0.000141052
7 res[20] res[21] 5.71028e-05
8 *16:11 res[21] 7.90067e-05
9 *22:11 res[21] 0
10 *47:8 res[21] 0.000154777
*RES
1 *452:X *48:8 39.5743 
2 *48:8 res[21] 23.6972 
*END

*D_NET *49 0.0028883
*CONN
*P res[22] O
*I *453:X O *D sky130_fd_sc_hd__buf_2
*CAP
1 res[22] 0.00034927
2 *453:X 0.000603726
3 *49:8 0.000952996
4 res[22] res[7] 0
5 *49:8 *367:A 9.16459e-05
6 *49:8 *454:A 9.5877e-05
7 *49:8 *50:14 1.76557e-05
8 *49:8 *64:12 0.000252161
9 *49:8 *100:14 0.000267167
10 *49:8 *111:44 2.32101e-05
11 *3:13 res[22] 0.000234595
*RES
1 *453:X *49:8 36.0293 
2 *49:8 res[22] 24.0521 
*END

*D_NET *50 0.00144116
*CONN
*P res[23] O
*I *454:X O *D sky130_fd_sc_hd__buf_2
*CAP
1 res[23] 4.5266e-05
2 *454:X 0.000357648
3 *50:14 0.000402914
4 res[23] res[24] 0
5 *50:14 res[6] 0.000213415
6 *50:14 *367:A 5.50106e-05
7 *18:15 *50:14 0
8 *35:8 *50:14 0.000349246
9 *49:8 *50:14 1.76557e-05
*RES
1 *454:X *50:14 49.5896 
2 *50:14 res[23] 1.39821 
*END

*D_NET *51 0.0010826
*CONN
*P res[24] O
*I *455:X O *D sky130_fd_sc_hd__buf_2
*CAP
1 res[24] 0.00047032
2 *455:X 0.00047032
3 res[24] *64:12 0.00014196
4 res[23] res[24] 0
5 *32:9 res[24] 0
*RES
1 *455:X res[24] 47.57 
*END

*D_NET *52 0.00222969
*CONN
*P res[25] O
*I *456:X O *D sky130_fd_sc_hd__buf_2
*CAP
1 res[25] 0.000571692
2 *456:X 0.000276418
3 *52:8 0.00084811
4 res[25] res[26] 0
5 *52:8 *452:A 2.64616e-05
6 *52:8 *53:8 0
7 res[21] res[25] 0.000365957
8 *48:8 *52:8 0.000141052
*RES
1 *456:X *52:8 42.9093 
2 *52:8 res[25] 14.6864 
*END

*D_NET *53 0.00230925
*CONN
*P res[26] O
*I *457:X O *D sky130_fd_sc_hd__buf_2
*CAP
1 res[26] 0.000784645
2 *457:X 0.000369982
3 *53:8 0.00115463
4 res[25] res[26] 0
5 *52:8 *53:8 0
*RES
1 *457:X *53:8 44.3386 
2 *53:8 res[26] 17.1514 
*END

*D_NET *54 0.00113053
*CONN
*P res[27] O
*I *458:X O *D sky130_fd_sc_hd__buf_2
*CAP
1 res[27] 0.000478782
2 *458:X 0.000478782
3 res[27] res[28] 0
4 *21:15 res[27] 9.11667e-05
5 *22:11 res[27] 8.1796e-05
*RES
1 *458:X res[27] 48.2743 
*END

*D_NET *55 0.00114487
*CONN
*P res[28] O
*I *459:X O *D sky130_fd_sc_hd__buf_2
*CAP
1 res[28] 0.000500606
2 *459:X 0.000500606
3 res[28] res[30] 0
4 res[27] res[28] 0
5 *21:15 res[28] 0.000143655
*RES
1 *459:X res[28] 48.2743 
*END

*D_NET *56 0.00115075
*CONN
*P res[29] O
*I *460:X O *D sky130_fd_sc_hd__buf_2
*CAP
1 res[29] 0.000502757
2 *460:X 0.000502757
3 res[29] res[30] 0
4 res[29] res[8] 0
5 *21:15 res[29] 0.000145236
*RES
1 *460:X res[29] 48.2743 
*END

*D_NET *57 0.000981021
*CONN
*P res[2] O
*I *461:X O *D sky130_fd_sc_hd__buf_2
*CAP
1 res[2] 9.98094e-05
2 *461:X 0.000363679
3 *57:10 0.000463488
4 *7:13 res[2] 2.79122e-05
5 *25:17 res[2] 2.61329e-05
6 *29:19 *57:10 0
*RES
1 *461:X *57:10 43.9139 
2 *57:10 res[2] 8.4816 
*END

*D_NET *58 0.00114579
*CONN
*P res[30] O
*I *462:X O *D sky130_fd_sc_hd__buf_2
*CAP
1 res[30] 0.000501067
2 *462:X 0.000501067
3 res[28] res[30] 0
4 res[29] res[30] 0
5 *21:15 res[30] 0.000143655
*RES
1 *462:X res[30] 48.2743 
*END

*D_NET *59 0.00105976
*CONN
*P res[31] O
*I *463:X O *D sky130_fd_sc_hd__buf_2
*CAP
1 res[31] 0.000518365
2 *463:X 0.000518365
3 res[31] res[8] 0
4 res[31] *463:A 2.30292e-05
5 *423:A res[31] 0
*RES
1 *463:X res[31] 48.2743 
*END

*D_NET *60 0.00267357
*CONN
*P res[3] O
*I *464:X O *D sky130_fd_sc_hd__buf_2
*CAP
1 res[3] 0.000721923
2 *464:X 0
3 *60:6 0.000721923
4 res[3] res[4] 0
5 res[3] *119:10 7.66188e-05
6 res[3] *157:8 0.000165593
7 res[12] res[3] 3.95131e-05
8 *28:13 res[3] 0.000170143
9 *29:19 res[3] 0
10 *33:11 res[3] 0.000777857
*RES
1 *464:X *60:6 38 
2 *60:6 res[3] 22.4243 
*END

*D_NET *61 0.00191768
*CONN
*P res[4] O
*I *465:X O *D sky130_fd_sc_hd__buf_2
*CAP
1 res[4] 0.000339616
2 *465:X 0.000465202
3 *61:8 0.000804818
4 *61:8 *442:A 3.52383e-05
5 *61:8 *119:10 2.30292e-05
6 res[3] res[4] 0
7 *25:17 *61:8 2.93845e-05
8 *29:19 res[4] 0.000220396
9 *30:11 res[4] 0
10 *33:11 res[4] 0
*RES
1 *465:X *61:8 43.8621 
2 *61:8 res[4] 7.99571 
*END

*D_NET *62 0.00108146
*CONN
*P res[5] O
*I *466:X O *D sky130_fd_sc_hd__buf_2
*CAP
1 res[5] 0.000391983
2 *466:X 0.000391983
3 *427:A res[5] 0.000200707
4 *5:11 res[5] 9.67842e-05
5 *38:8 res[5] 0
*RES
1 *466:X res[5] 47.0936 
*END

*D_NET *63 0.00136301
*CONN
*P res[6] O
*I *467:X O *D sky130_fd_sc_hd__buf_2
*CAP
1 res[6] 0.000364628
2 *467:X 0.000364628
3 res[6] *367:A 9.11985e-05
4 *18:15 res[6] 0.00019313
5 *19:19 res[6] 0.000136013
6 *35:8 res[6] 0
7 *50:14 res[6] 0.000213415
*RES
1 *467:X res[6] 49.4343 
*END

*D_NET *64 0.0030698
*CONN
*P res[7] O
*I *468:X O *D sky130_fd_sc_hd__buf_2
*CAP
1 res[7] 0.000780252
2 *468:X 0.000548409
3 *64:12 0.00132866
4 *64:12 *367:C 1.83564e-05
5 *64:12 *125:8 0
6 res[22] res[7] 0
7 res[24] *64:12 0.00014196
8 *35:8 *64:12 0
9 *49:8 *64:12 0.000252161
*RES
1 *468:X *64:12 49.9107 
2 *64:12 res[7] 44.5207 
*END

*D_NET *65 0.00110603
*CONN
*P res[8] O
*I *469:X O *D sky130_fd_sc_hd__buf_2
*CAP
1 res[8] 0.000502613
2 *469:X 0.000502613
3 res[29] res[8] 0
4 res[31] res[8] 0
5 *21:15 res[8] 0.000100805
*RES
1 *469:X res[8] 48.5643 
*END

*D_NET *66 0.000964958
*CONN
*P res[9] O
*I *470:X O *D sky130_fd_sc_hd__buf_2
*CAP